data_inmsmn
_nottingham_internal_coll_name    INMSMN
_nottingham_internal_coll_number  14606
_nottingham_internal_coll_client  MS/MS
_nottingham_internal_coll_type    Hemi
_nottingham_internal_coll_frame_method \w
_nottingham_internal_coll_frame_time 1
_nottingham_internal_coll_frame_width 1
_nottingham_internal_coll_user    MS/MS
_nottingham_internal_coll_date    17/05/2013
_nottingham_internal_coll_location DLS
_nottingham_internal_NCS_number   ?
_nottingham_internal_process_date 12/03/2015
_nottingham_internal_process_user MS/MS
_nottingham_internal_solution_date 12/03/2015
_nottingham_internal_solution_user MS/MS
_nottingham_internal_refinement_date 12/03/2015
_nottingham_internal_refinement_user MS/MS
_nottingham_internal_self_archive_date ?****
_nottingham_internal_self_validation_date ?***
_nottingham_internal_self_validation_user ?***
_nottingham_internal_validation_date ?*****
_nottingham_internal_validation_user ?*****
_nottingham_internal_archive_date ?*****
_refine_special_details
'All non-hydrogen atoms were refined anisotropically, hydrogen atoms were placed geometrically and allowed to ride on thier parent atoms.'
_vrf_PLAT601_inmsmn
;
PROBLEM: Structure Contains Solvent Accessible VOIDS of .        759 Ang3  
RESPONSE: A large void region contained very little electron density as an effect of 
rigourouly outgassing the sample on an in-situ vaccum line at 243 K for 20 hours.
;
_audit_creation_date              2015-03-12
_audit_creation_method
;
Olex2 1.2
(compiled 2015.01.26 svn.r3150 for OlexSys, GUI svn.r4998)
;
_shelx_SHELXL_version_number      '2014/7'
_publ_contact_author_address      ?
_publ_contact_author_email        ?
_publ_contact_author_name         ''
_publ_contact_author_phone        ?
_publ_section_references
;
Dolomanov, O.V., Bourhis, L.J., Gildea, R.J, Howard, J.A.K. & Puschmann, H.
 (2009), J. Appl. Cryst. 42, 339-341.

Sheldrick, G.M. (2008). Acta Cryst. A64, 112-122.
;
_chemical_name_common             ?
_chemical_name_systematic         'NOTT-300 (In) Desolvated'
_chemical_formula_moiety          '0.25(C64 H32 In8 O40)'
_chemical_formula_sum             'C16 H8 In2 O10'
_chemical_formula_weight          589.86
_chemical_absolute_configuration  ad
_chemical_melting_point           ?
loop_
  _atom_type_symbol
  _atom_type_description
  _atom_type_scat_dispersion_real
  _atom_type_scat_dispersion_imag
  _atom_type_scat_source
 'C' 'C' 0.0030 0.0010 'International Tables Vol C Tables 4.2.6.8 and 6.1.1.4'
 'H' 'H' 0.0000 0.0000 'International Tables Vol C Tables 4.2.6.8 and 6.1.1.4'
 'In' 'In' -0.7640 1.2230
 'International Tables Vol C Tables 4.2.6.8 and 6.1.1.4'
 'O' 'O' 0.0110 0.0060 'International Tables Vol C Tables 4.2.6.8 and 6.1.1.4'

_shelx_space_group_comment
;
The symmetry employed for this shelxl refinement is uniquely defined
by the following loop, which should always be used as a source of
symmetry information in preference to the above space-group names.
They are only intended as comments.
;
_space_group_crystal_system       'tetragonal'
_space_group_IT_number            98
_space_group_name_H-M_alt         'I 41 2 2'
_space_group_name_Hall            'I 4bw 2bw'
loop_
  _space_group_symop_operation_xyz
 'x, y, z'
 '-x+1/2, -y+1/2, z+1/2'
 '-y, x+1/2, z+1/4'
 'y+1/2, -x, z+3/4'
 '-x+1/2, y, -z+3/4'
 'x, -y+1/2, -z+1/4'
 'y+1/2, x+1/2, -z+1/2'
 '-y, -x, -z'
 'x+1/2, y+1/2, z+1/2'
 '-x+1, -y+1, z+1'
 '-y+1/2, x+1, z+3/4'
 'y+1, -x+1/2, z+5/4'
 '-x+1, y+1/2, -z+5/4'
 'x+1/2, -y+1, -z+3/4'
 'y+1, x+1, -z+1'
 '-y+1/2, -x+1/2, -z+1/2'

_cell_length_a                    15.4886(8)
_cell_length_b                    15.4886(8)
_cell_length_c                    12.3439(13)
_cell_angle_alpha                 90
_cell_angle_beta                  90
_cell_angle_gamma                 90
_cell_volume                      2961.3(4)
_cell_formula_units_Z             4
_cell_measurement_reflns_used     4193
_cell_measurement_temperature     423
_cell_measurement_theta_max       26.6
_cell_measurement_theta_min       2.0
_shelx_estimated_absorpt_T_max    0.742
_shelx_estimated_absorpt_T_min    0.742
_exptl_absorpt_coefficient_mu     1.590
_exptl_absorpt_correction_T_max   1.000
_exptl_absorpt_correction_T_min   0.709
_exptl_absorpt_correction_type    Multi-scan
_exptl_absorpt_process_details    'Jacobson, R. (1998). Private Communication'
_exptl_absorpt_special_details    ?
_exptl_crystal_colour             'clear colourless'
_exptl_crystal_colour_lustre      clear
_exptl_crystal_colour_modifier    .
_exptl_crystal_colour_primary     colourless
_exptl_crystal_density_diffrn     1.323
_exptl_crystal_density_meas       ?
_exptl_crystal_density_method     ?
_exptl_crystal_description        block
_exptl_crystal_F_000              1128
_exptl_crystal_preparation
'Outgassed at 10\^-6 mbar at 423 K for 20 hours'
_exptl_crystal_recrystallization_method ?
_exptl_crystal_size_max           0.2
_exptl_crystal_size_mid           0.2
_exptl_crystal_size_min           0.2
_exptl_special_details
;
 ?
;
_exptl_transmission_factor_max    ?
_exptl_transmission_factor_min    ?
_diffrn_reflns_av_R_equivalents   0.0477
_diffrn_reflns_av_unetI/netI      0.0426
_diffrn_reflns_Laue_measured_fraction_full 0.992
_diffrn_reflns_Laue_measured_fraction_max 0.994
_diffrn_reflns_limit_h_max        20
_diffrn_reflns_limit_h_min        -17
_diffrn_reflns_limit_k_max        20
_diffrn_reflns_limit_k_min        -18
_diffrn_reflns_limit_l_max        16
_diffrn_reflns_limit_l_min        -15
_diffrn_reflns_number             11489
_diffrn_reflns_point_group_measured_fraction_full 0.996
_diffrn_reflns_point_group_measured_fraction_max 0.996
_diffrn_reflns_theta_full         25.242
_diffrn_reflns_theta_max          27.482
_diffrn_reflns_theta_min          2.110
_diffrn_ambient_temperature       423
_diffrn_detector                  'CCD area detector'
_diffrn_detector_area_resol_mean  0.0350
_diffrn_detector_type             'Rigaku Saturn724+'
_diffrn_measured_fraction_theta_full 0.992
_diffrn_measured_fraction_theta_max 0.994
_diffrn_measurement_details
;
scan:
	Number of images: 175
	           Slice: -60.0000 - 115.0000
	     Image width: 1.0000
	        Exp time: 1.0000
	   Rotation axis: Omega
	           Omega: 0.0000
	           Kappa: 0.0000
	             Phi: 0.0000
	             XTD: 59.6383
	          2theta: 30.0526
scan:
	Number of images: 120
	           Slice: -60.0000 - 60.0000
	     Image width: 1.0000
	        Exp time: 1.0000
	   Rotation axis: Omega
	           Omega: 0.0000
	           Kappa: -50.0000
	             Phi: 0.0000
	             XTD: 59.6383
	          2theta: 30.0526
scan:
	Number of images: 120
	           Slice: -60.0000 - 60.0000
	     Image width: 1.0000
	        Exp time: 1.0000
	   Rotation axis: Omega
	           Omega: 0.0000
	           Kappa: -50.0000
	             Phi: 120.0000
	             XTD: 59.6383
	          2theta: 30.0526
;
_diffrn_measurement_device        'CrystalLogic Kappa (4 circle)'
_diffrn_measurement_device_type   'Kappa Rigaku Saturn724+'
_diffrn_measurement_method        'profile data from \w-scans'
_diffrn_measurement_specimen_support Fiber
_diffrn_orient_matrix_type        d*Trek
_diffrn_orient_matrix_UB_11       -0.049592
_diffrn_orient_matrix_UB_12       0.019428
_diffrn_orient_matrix_UB_13       0.036491
_diffrn_orient_matrix_UB_21       0.004185
_diffrn_orient_matrix_UB_22       0.059056
_diffrn_orient_matrix_UB_23       -0.025755
_diffrn_orient_matrix_UB_31       -0.051606
_diffrn_orient_matrix_UB_32       -0.021855
_diffrn_orient_matrix_UB_33       -0.058499
_diffrn_radiation_collimation     '0.3 x 1.5 Double Pinhole'
_diffrn_radiation_monochromator   'Synchrotron '
_diffrn_radiation_probe           x-ray
_diffrn_radiation_type            MoK\a
_diffrn_radiation_wavelength      0.71073
_diffrn_source                    Synchrotron
_diffrn_source_current            40.0
_diffrn_source_power              2.0
_diffrn_source_type               'Undulator, I19, DLS, RAL'
_diffrn_source_voltage            50.0
_diffrn_special_details           ?
_reflns_Friedel_coverage          0.715
_reflns_Friedel_fraction_full     1.000
_reflns_Friedel_fraction_max      1.000
_reflns_number_gt                 1647
_reflns_number_total              1706
_reflns_special_details
;
 Reflections were merged by SHELXL according to the crystal
 class for the calculation of statistics and refinement.
 
 _reflns_Friedel_fraction is defined as the number of unique
 Friedel pairs measured divided by the number that would be
 possible theoretically, ignoring centric projections and
 systematic absences.
;
_reflns_threshold_expression      'I > 2\s(I)'
_computing_cell_refinement
;
CrystalClear-SM Expert 2.0 r13 (Rigaku, 2011)
;
_computing_data_collection
;
CrystalClear-SM Expert 2.0 r13 (Rigaku, 2011)
;
_computing_data_reduction
;
CrystalClear-SM Expert 2.0 r13 (Rigaku, 2011)
;
_computing_molecular_graphics     'Olex2 (Dolomanov et al., 2009)'
_computing_publication_material   'Olex2 (Dolomanov et al., 2009)'
_computing_structure_refinement   'ShelXL (Sheldrick, 2008)'
_computing_structure_solution     ?
_refine_diff_density_max          0.633
_refine_diff_density_min          -0.272
_refine_diff_density_rms          0.088
_refine_ls_abs_structure_details
;
 Flack x determined using 663 quotients [(I+)-(I-)]/[(I+)+(I-)]
 (Parsons, Flack and Wagner, Acta Cryst. B69 (2013) 249-259).
;
_refine_ls_abs_structure_Flack    0.04(2)
_refine_ls_extinction_coef        .
_refine_ls_extinction_method      none
_refine_ls_goodness_of_fit_ref    1.172
_refine_ls_hydrogen_treatment     mixed
_refine_ls_matrix_type            full
_refine_ls_number_parameters      67
_refine_ls_number_reflns          1706
_refine_ls_number_restraints      1
_refine_ls_R_factor_all           0.0266
_refine_ls_R_factor_gt            0.0255
_refine_ls_restrained_S_all       1.173
_refine_ls_shift/su_max           0.002
_refine_ls_shift/su_mean          0.000
_refine_ls_structure_factor_coef  Fsqd
_refine_ls_weighting_details
'w=1/[\s^2^(Fo^2^)+(0.0374P)^2^+2.2428P] where P=(Fo^2^+2Fc^2^)/3'
_refine_ls_weighting_scheme       calc
_refine_ls_wR_factor_gt           0.0713
_refine_ls_wR_factor_ref          0.0719
_olex2_refinement_description
;
1. Fixed Uiso
 At 1.2 times of:
  All C(H) groups, All O(H) groups
2. Restrained distances
 O1_$1-H1_$1
 0.82 with sigma of 0.02
3.a Aromatic/amide H refined with riding coordinates:
 C4(H4), C3(H3)
;
_atom_sites_solution_hydrogens    mixed
_atom_sites_solution_primary      ?
_atom_sites_solution_secondary    ?
loop_
  _atom_site_label
  _atom_site_type_symbol
  _atom_site_fract_x
  _atom_site_fract_y
  _atom_site_fract_z
  _atom_site_U_iso_or_equiv
  _atom_site_adp_type
  _atom_site_occupancy
  _atom_site_site_symmetry_order
  _atom_site_calc_flag
  _atom_site_refinement_flags_posn
  _atom_site_refinement_flags_adp
  _atom_site_refinement_flags_occupancy
  _atom_site_disorder_assembly
  _atom_site_disorder_group
 In1 In 0.68713(2) 0.31287(2) 0.0000 0.02523(15) Uani 1 2 d S T P . .
 O2 O 0.6113(3) 0.3823(3) 0.1149(3) 0.0461(9) Uani 1 1 d . . . . .
 C1 C 0.5853(3) 0.3627(3) 0.2088(4) 0.0375(12) Uani 1 1 d . . . . .
 C4 C 0.5362(4) 0.4309(4) 0.3817(4) 0.054(2) Uani 1 1 d . . . . .
 H4 H 0.5586 0.3838 0.4190 0.065 Uiso 1 1 calc R . . . .
 C3 C 0.5000 0.5000 0.2120(5) 0.0482(18) Uani 1 2 d S T P . .
 H3 H 0.5000 0.5000 0.1367 0.058 Uiso 1 2 calc RS T P . .
 C2 C 0.5389(4) 0.4325(4) 0.2688(4) 0.0487(17) Uani 1 1 d . . . . .
 C5 C 0.5000 0.5000 0.4392(5) 0.056(2) Uani 1 2 d S T P . .
 O1 O 0.7542(4) 0.2500 0.1250 0.0455(11) Uani 1 2 d DS T P . .
 O3 O 0.5939(2) 0.2921(2) 0.2558(3) 0.0461(9) Uani 1 1 d . . . . .
 H1 H 0.8055(17) 0.2500 0.1250 0.055 Uiso 1 2 d DRS T P . .

loop_
  _atom_site_aniso_label
  _atom_site_aniso_U_11
  _atom_site_aniso_U_22
  _atom_site_aniso_U_33
  _atom_site_aniso_U_23
  _atom_site_aniso_U_13
  _atom_site_aniso_U_12
 In1 0.03152(17) 0.03152(17) 0.0126(2) 0.00198(13) 0.00198(13) -0.00020(15)
 O2 0.068(3) 0.047(2) 0.0228(15) 0.0007(19) 0.012(2) 0.0238(17)
 C1 0.045(3) 0.044(3) 0.023(2) 0.002(2) 0.002(2) 0.017(2)
 C4 0.074(5) 0.065(4) 0.022(2) 0.003(3) 0.002(3) 0.034(4)
 C3 0.059(6) 0.063(6) 0.023(3) 0.000 0.000 0.027(3)
 C2 0.066(4) 0.056(3) 0.024(3) -0.002(2) 0.002(2) 0.026(3)
 C5 0.072(6) 0.077(7) 0.020(3) 0.000 0.000 0.044(4)
 O1 0.033(3) 0.070(4) 0.033(2) 0.028(3) 0.000 0.000
 O3 0.057(2) 0.0473(19) 0.0336(19) 0.009(2) 0.011(2) 0.0233(16)

_geom_special_details
;
 All esds (except the esd in the dihedral angle between two l.s. planes)
 are estimated using the full covariance matrix.  The cell esds are taken
 into account individually in the estimation of esds in distances, angles
 and torsion angles; correlations between esds in cell parameters are only
 used when they are defined by crystal symmetry.  An approximate (isotropic)
 treatment of cell esds is used for estimating esds involving l.s. planes.
;
loop_
  _geom_bond_atom_site_label_1
  _geom_bond_atom_site_label_2
  _geom_bond_distance
  _geom_bond_site_symmetry_2
  _geom_bond_publ_flag
 In1 O2 2.132(3) . ?
 In1 O2 2.132(3) 8_665 ?
 In1 O1 2.100(3) . ?
 In1 O1 2.100(3) 8_665 ?
 In1 O3 2.176(3) 4_564 ?
 In1 O3 2.176(3) 6 ?
 O2 C1 1.265(6) . ?
 C1 C2 1.494(7) . ?
 C1 O3 1.246(6) . ?
 C4 H4 0.9300 . ?
 C4 C2 1.395(7) . ?
 C4 C5 1.401(6) . ?
 C3 H3 0.9300 . ?
 C3 C2 1.395(6) 10_554 ?
 C3 C2 1.395(6) . ?
 C5 C4 1.401(6) 10_554 ?
 C5 C5 1.501(13) 15_445 ?
 O1 In1 2.100(3) 3_645 ?
 O1 H1 0.79(3) . ?
 O3 In1 2.176(3) 3_645 ?

loop_
  _geom_angle_atom_site_label_1
  _geom_angle_atom_site_label_2
  _geom_angle_atom_site_label_3
  _geom_angle
  _geom_angle_site_symmetry_1
  _geom_angle_site_symmetry_3
  _geom_angle_publ_flag
 O2 In1 O2 83.48(17) 8_665 . ?
 O2 In1 O3 91.89(19) 8_665 4_564 ?
 O2 In1 O3 93.12(18) . 4_564 ?
 O2 In1 O3 91.90(19) . 6 ?
 O2 In1 O3 93.12(18) 8_665 6 ?
 O1 In1 O2 173.58(11) 8_665 . ?
 O1 In1 O2 173.58(11) . 8_665 ?
 O1 In1 O2 91.02(13) . . ?
 O1 In1 O2 91.02(13) 8_665 8_665 ?
 O1 In1 O1 94.65(17) 8_665 . ?
 O1 In1 O3 90.37(15) . 6 ?
 O1 In1 O3 90.37(15) 8_665 4_564 ?
 O1 In1 O3 85.06(16) 8_665 6 ?
 O1 In1 O3 85.06(16) . 4_564 ?
 O3 In1 O3 173.3(2) 6 4_564 ?
 C1 O2 In1 131.6(3) . . ?
 O2 C1 C2 115.7(5) . . ?
 O3 C1 O2 127.2(5) . . ?
 O3 C1 C2 117.1(5) . . ?
 C2 C4 H4 119.8 . . ?
 C2 C4 C5 120.4(5) . . ?
 C5 C4 H4 119.8 . . ?
 C2 C3 H3 120.1 . . ?
 C2 C3 H3 120.1 10_554 . ?
 C2 C3 C2 119.7(6) 10_554 . ?
 C4 C2 C1 119.8(5) . . ?
 C4 C2 C3 120.1(5) . . ?
 C3 C2 C1 120.1(5) . . ?
 C4 C5 C4 119.1(6) 10_554 . ?
 C4 C5 C5 120.5(3) 10_554 15_445 ?
 C4 C5 C5 120.5(3) . 15_445 ?
 In1 O1 In1 120.7(3) 3_645 . ?
 In1 O1 H1 119.66(14) . . ?
 In1 O1 H1 119.66(14) 3_645 . ?
 C1 O3 In1 135.3(3) . 3_645 ?

loop_
  _geom_torsion_atom_site_label_1
  _geom_torsion_atom_site_label_2
  _geom_torsion_atom_site_label_3
  _geom_torsion_atom_site_label_4
  _geom_torsion
  _geom_torsion_site_symmetry_1
  _geom_torsion_site_symmetry_2
  _geom_torsion_site_symmetry_3
  _geom_torsion_site_symmetry_4
  _geom_torsion_publ_flag
 In1 O2 C1 C2 175.1(4) . . . . ?
 In1 O2 C1 O3 -5.3(10) . . . . ?
 O2 C1 C2 C4 -156.1(6) . . . . ?
 O2 C1 C2 C3 22.6(8) . . . . ?
 O2 C1 O3 In1 28.5(9) . . . 3_645 ?
 C2 C1 O3 In1 -151.9(4) . . . 3_645 ?
 C2 C4 C5 C4 2.3(5) . . . 10_554 ?
 C2 C4 C5 C5 -177.7(5) . . . 15_445 ?
 C2 C3 C2 C1 -176.3(7) 10_554 . . . ?
 C2 C3 C2 C4 2.3(5) 10_554 . . . ?
 C5 C4 C2 C1 174.0(5) . . . . ?
 C5 C4 C2 C3 -4.6(9) . . . . ?
 O3 C1 C2 C4 24.3(9) . . . . ?
 O3 C1 C2 C3 -157.1(5) . . . . ?

_shelx_res_file
;
    inmsmn.res created by SHELXL-2014/7

TITL 2 in I4(1)22
CELL 0.71073 15.4886 15.4886 12.3439 90 90 90
ZERR 4 0.0008 0.0008 0.0013 0 0 0
LATT -2
SYMM 0.5-X,0.5-Y,0.5+Z
SYMM -Y,0.5+X,0.25+Z
SYMM 0.5+Y,-X,0.75+Z
SYMM 0.5-X,+Y,0.75-Z
SYMM +X,0.5-Y,0.25-Z
SYMM 0.5+Y,0.5+X,0.5-Z
SYMM -Y,-X,-Z
SFAC C H In O
DISP C 0.003 0.001
DISP H -0 0
DISP In -0.764 1.223
DISP O 0.011 0.006
UNIT 64 32 8 40
EQIV $1 1-Y,1-X,-Z
DFIX 0.82 O1_$1 H1_$1

L.S. 100
PLAN  5
SIZE 0.2 0.2 0.2
TEMP 149.85
BOND
MORE -1
BOND $H
CONF
fmap 2
acta
OMIT 0 2 0
OMIT 0 2 2
OMIT 2 4 0
REM <olex2.extras>
REM <HklSrc "%.\\INMSMN.hkl">
REM </olex2.extras>

WGHT    0.037400    2.242800
FVAR       0.09403
IN1   3    0.687132    0.312868    0.000000    10.50000    0.03152    0.03152 =
         0.01264    0.00198    0.00198   -0.00020
O2    4    0.611300    0.382319    0.114871    11.00000    0.06811    0.04740 =
         0.02281    0.00067    0.01156    0.02385
C1    1    0.585308    0.362718    0.208823    11.00000    0.04530    0.04426 =
         0.02282    0.00184    0.00164    0.01715
C4    1    0.536206    0.430950    0.381690    11.00000    0.07430    0.06546 =
         0.02205    0.00270    0.00168    0.03410
AFIX  43
H4    2    0.558555    0.383818    0.419005    11.00000   -1.20000
AFIX   0
C3    1    0.500000    0.500000    0.211997    10.50000    0.05908    0.06286 =
         0.02259    0.00000    0.00000    0.02675
AFIX  43
H3    2    0.499999    0.500001    0.136656    10.50000   -1.20000
AFIX   0
C2    1    0.538922    0.432499    0.268751    11.00000    0.06606    0.05562 =
         0.02437   -0.00184    0.00223    0.02610
C5    1    0.500000    0.500000    0.439207    10.50000    0.07152    0.07687 =
         0.01974    0.00000    0.00000    0.04429
O1    4    0.754219    0.250000    0.125000    10.50000    0.03328    0.07010 =
         0.03315    0.02765    0.00000    0.00000
O3    4    0.593861    0.292063    0.255835    11.00000    0.05726    0.04733 =
         0.03361    0.00887    0.01064    0.02332
H1    2    0.805473    0.250000    0.125000    10.50000   -1.20000
HKLF 4

REM  2 in I4(1)22
REM R1 =  0.0255 for    1647 Fo > 4sig(Fo)  and  0.0266 for all    1706 data
REM     67 parameters refined using      1 restraints

END

WGHT      0.0374      2.2428

REM Highest difference peak  0.633,  deepest hole -0.272,  1-sigma level  0.088
Q1    1   0.8123  0.1877  0.0000  10.50000  0.05    0.63
Q2    1   0.6866  0.4380  0.2463  11.00000  0.05    0.63
Q3    1   0.7241  0.2759  0.0000  10.50000  0.05    0.55
Q4    1   0.6387  0.2720 -0.0011  11.00000  0.05    0.53
Q5    1   0.3532  0.4063  0.0005  11.00000  0.05    0.47
;
_shelx_res_checksum               4397
_shelx_hkl_file
;
   0   0   2   -0.19    0.32
   0   0   4  923.61   27.61
   0   0  -6    0.34    0.47
   0   0   6    0.52    0.86
   0   0  -8 1112.76   41.00
   0   0  -8 1236.98   45.48
   0   0   8 1164.39   42.98
   0   0 -10    1.40    0.65
   0   0 -10    0.50    0.43
   0   0  10    0.77    1.23
   0   0 -12  111.27    7.67
   0   0 -12  118.20    8.10
   0   0  12  106.46    7.53
   0   0 -14    0.26    0.40
   0   0  14    0.16    0.84
   0   0  16  170.53   95.17
   0   1  -1   99.64    2.25
   0   1   1  110.76    2.48
   1   0  -1  106.02    2.39
   0  -1   1  108.83    2.42
   1   0   1  119.16    2.66
   0   1   1  114.33    2.56
   1   0   1  116.30    2.62
  -1   0   1  110.40    2.50
   0   1  -3   61.16    1.58
   0   1   3   59.33    1.51
   1   0  -3   59.59    1.53
   0   1  -3   61.01    1.50
   0   1   3   63.22    1.85
   1   0   3   64.75    1.75
  -1   0   3   63.75    1.71
   0  -1   3   60.94    1.76
   1   0  -5  127.40    3.12
  -1   0  -5  115.27    2.74
   0   1  -5  128.02    3.07
   0   1   5  122.71    2.91
   1   0  -5  125.98    3.00
   0   1  -5  129.50    2.99
   0   1   5  116.82    2.97
   1   0   5  117.58    2.97
  -1   0   5  123.42    3.14
   0  -1   5  114.85    2.93
   1   0  -7   70.43    2.43
  -1   0  -7   68.77    2.24
   0   1  -7   70.99    2.32
   1   0  -7   74.92    2.46
   0   1  -7   73.17    2.31
   0   1   7   66.78    2.33
   1   0   7   72.52    2.56
  -1   0   7   73.25    2.61
   0  -1   7   69.56    2.47
   0  -1  -9   53.52    3.94
   1   0  -9   54.86    4.05
  -1   0  -9   63.34    4.79
   0   1  -9   48.80    3.63
   0  -1  -9   55.65    4.07
  -1   0  -9   56.68    4.20
   1   0  -9   48.94    3.56
   0   1  -9   58.36    4.22
   0   1   9   56.48    4.27
   1   0   9   50.92    3.87
  -1   0   9   53.98    4.17
   0  -1   9   52.34    4.00
   0  -1 -11   36.42    2.34
   1   0 -11   39.44    2.52
  -1   0 -11   35.42    2.28
   0   1 -11   39.72    2.50
   0  -1 -11   35.60    2.23
  -1   0 -11   30.80    1.96
   1   0 -11   37.10    2.33
   0   1 -11   36.54    2.28
   0   1  11   37.17    2.57
   1   0  11   37.12    2.96
  -1   0  11   36.80    2.64
   0  -1  11   39.29    2.87
   0  -1 -13    4.92    1.08
   1   0 -13    3.63    1.49
  -1   0 -13    4.39    1.41
   0   1 -13    4.89    1.90
   0   1  13    5.03    1.78
   1   0  13    4.92    3.90
  -1   0  13    5.57    3.07
   0  -1  13    4.41    1.45
   0  -1 -15   14.41    6.29
   1   0 -15   14.32    6.25
   0   1  15   15.40    6.77
   1   0  15   18.58    8.13
  -1   0  15   21.53    9.42
   0  -1  15   18.77    8.24
   1   1  -2   25.20    0.70
  -1   1  -2   27.92    0.68
   1   1   2   27.22    0.65
  -1   1   2   29.72    0.77
   1   1  -2   28.13    0.70
  -1   1  -2   28.18    0.64
   1   1   2   27.44    0.70
  -1   1   2   26.32    0.71
   1  -1   2   27.22    0.78
  -1  -1   2   25.39    0.79
   1   1  -4  534.38   12.03
  -1   1  -4  498.43   11.18
   1   1   4  530.61   11.87
  -1   1   4  515.44   11.57
   1   1  -4  533.96   11.94
   1   1   4  504.51   11.37
   1  -1   4  493.19   11.18
  -1  -1   4  522.66   11.85
   1   1  -6   19.24    0.98
  -1   1  -6   19.15    0.82
   1   1   6   19.49    0.79
  -1   1   6   19.64    0.87
  -1   1  -6   21.32    0.79
   1  -1  -6   19.31    0.88
   1   1  -6   19.54    0.76
   1   1   6   19.70    0.95
  -1   1   6   17.92    0.92
   1  -1   6   21.86    1.35
  -1  -1   6   19.87    1.03
  -1  -1  -8  661.79   46.58
   1   1  -8  619.28   22.91
  -1   1  -8  604.39   22.33
   1  -1  -8  617.61   22.81
  -1   1  -8  630.81   44.36
   1   1  -8  608.86   22.42
   1   1   8  655.03   46.14
  -1   1   8  651.22   45.90
   1  -1   8  617.08   22.90
  -1  -1   8  616.91   22.91
   1  -1 -10   18.13    0.95
  -1  -1 -10   18.11    0.80
   1   1 -10   17.98    0.92
  -1   1 -10   16.99    0.78
  -1  -1 -10   18.85    0.67
   1  -1 -10   18.57    0.89
  -1   1 -10   16.54    0.55
   1   1 -10   18.44    0.66
   1   1  10   19.29    1.31
  -1   1  10   18.03    1.24
   1  -1  10   17.48    2.93
  -1  -1  10   18.18    1.34
   1  -1 -12  144.60    9.97
  -1  -1 -12  136.37    9.39
   1   1 -12  128.99    8.91
  -1   1 -12  123.65    8.50
  -1  -1 -12  130.01    8.88
   1  -1 -12  130.61    8.96
   1   1  12  128.65    9.15
  -1   1  12  133.44    9.30
   1  -1  12  121.96    8.53
  -1  -1  12  123.73    8.65
   1  -1 -14    3.41    1.73
  -1  -1 -14    3.83    2.13
   1   1 -14    2.10    1.89
  -1   1 -14    3.22    1.61
   1   1  14    4.69    2.50
  -1   1  14    3.75    2.80
   1  -1  14    3.31    1.68
  -1  -1  14    3.40    2.43
   2   0   0  355.08    7.91
   0   2   0  323.26    7.20
   2   0   0  349.05    7.78
   0   2  -2    7.29    0.30
   0   2   2    6.96    0.25
   2   0  -2    7.56    0.35
   0   2  -2    6.45    0.19
   2   0   2    6.22    0.21
   0   2   2    6.34    0.24
   2   0   2    6.11    0.40
  -2   0   2    6.20    0.35
  -2   0  -4  315.66    7.10
   0   2  -4  333.52    7.55
   0   2   4  319.99    7.22
   2   0  -4  337.06    7.63
   0   2  -4  318.70    7.12
   0   2   4  310.31    7.06
   2   0   4  323.96    7.40
  -2   0   4  323.18    7.47
   0  -2   4  329.39    7.61
   2   0  -6   -0.40    0.73
  -2   0  -6    0.33    0.53
   0   2  -6    0.41    0.39
   0   2   6   -0.15    0.60
   2   0  -6    0.56    0.25
   0   2  -6    1.03    0.55
   0   2   6    0.41    0.45
   2   0   6   -0.22    1.03
  -2   0   6   -0.14    1.02
   0  -2   6    0.37    0.53
   2   0  -8  273.02   10.26
  -2   0  -8  313.85   11.75
   0   2  -8  269.80   10.09
   0   2   8  276.38   10.34
   2   0  -8  284.22   10.57
   0   2  -8  291.37   10.80
   0   2   8  255.58    9.69
   2   0   8  273.78   10.37
  -2   0   8  275.80   10.85
   0  -2   8  276.81   10.58
   2   0 -10    1.12    0.95
  -2   0 -10   -0.97    0.62
   0   2 -10    0.51    0.68
   0  -2 -10    0.76    0.61
  -2   0 -10    0.94    0.51
   0   2 -10    0.01    0.60
   0   2  10   -0.76    1.43
   2   0  10    1.36    1.24
  -2   0  10    0.69    0.88
   0  -2  10    0.46    1.41
   0  -2 -12  144.18    9.89
   2   0 -12  138.98    9.58
  -2   0 -12  154.20   10.54
   0   2 -12  150.59   10.32
   0  -2 -12  153.45   10.51
   2   0 -12  153.74   10.51
   0   2  12  144.54   10.00
   2   0  12  155.18   10.78
  -2   0  12  157.68   11.18
   0  -2  12  151.89   10.64
   0  -2 -14    0.67    1.06
   2   0 -14    0.54    0.66
   0   2 -14    0.43    0.56
   0   2  14    1.20    1.15
   2   0  14    1.61    1.40
  -2   0  14    0.09    0.94
   0  -2  14   -0.65    1.52
   2   1  -1  565.19   12.59
   1   2  -1  648.33   14.42
  -1   2  -1  563.38   12.51
  -2   1   1  606.88   13.50
   2  -1  -1  620.21   13.82
   2   1  -1  628.63   13.98
   1   2  -1  641.89   14.25
   2   1   1  629.33   13.99
   1   2   1  564.08   12.54
   1   2   1  607.29   13.47
  -2   1   1  613.78   13.63
   2  -1   1  579.14   12.88
   1   2  -3  282.52    6.43
  -2   1  -3  274.28    6.14
  -1   2  -3  298.84    6.72
   1   2   3  287.87    6.46
   2   1   3  282.41    6.32
  -1   2   3  277.80    6.29
  -2   1   3  289.55    6.58
   2  -1  -3  291.29    6.63
   2   1  -3  283.54    6.40
   1   2  -3  281.12    6.30
   1   2   3  282.46    6.38
  -1   2   3  284.53    6.44
   2   1   3  274.83    6.23
  -2   1   3  291.60    6.61
   2  -1   3  291.55    6.68
  -2  -1   3  277.88    6.41
   1  -2   3  287.94    6.66
  -1  -2   3  292.56    6.79
   2   1  -5  216.42    5.11
  -2   1  -5  197.74    4.53
   1   2  -5  192.80    4.51
  -1   2  -5  188.47    4.34
   1   2   5  210.76    4.86
  -1   2   5  197.81    4.62
   2   1   5  186.82    4.26
  -2   1   5  195.20    4.60
   2  -1  -5  196.59    4.60
  -1   2  -5  189.40    4.26
   2   1  -5  190.39    4.38
   1   2  -5  188.70    4.29
   1   2   5  191.13    4.50
  -1   2   5  196.00    4.64
   2   1   5  187.70    4.43
  -2   1   5  197.66    5.12
   2  -1   5  193.24    4.67
  -2  -1   5  193.03    4.68
   1  -2   5  188.30    4.57
  -1  -2   5  194.60    4.91
   2   1  -7  193.37    6.03
  -2   1  -7  184.69    5.52
   1   2  -7  188.54    5.73
  -1   2  -7  191.20    5.77
   1   2   7  197.02    5.90
  -1   2   7  197.09    5.94
   2  -1  -7  195.51    5.91
  -1   2  -7  195.50    5.77
   2   1  -7  205.24    6.19
   1   2  -7  192.40    5.73
   1   2   7  190.18    5.83
  -1   2   7  179.56    5.62
   2   1   7  191.13    6.01
  -2   1   7  194.44    6.04
   2  -1   7  196.66    6.14
  -2  -1   7  194.71    6.23
   1  -2   7  196.94    6.14
  -1  -2   7  192.57    6.21
   2  -1  -9  129.38    9.31
  -2  -1  -9  134.81    9.59
   2   1  -9  130.92    9.34
  -2   1  -9  130.18    9.26
   1   2  -9  141.77   10.10
  -1   2  -9  129.04    9.47
   1  -2  -9  137.03    9.78
  -2   1  -9  138.82    9.87
   2  -1  -9  147.41   10.53
  -1   2  -9  139.92    9.93
   2   1  -9  141.69   10.08
   1   2  -9  137.45    9.74
   1   2   9  139.25   10.21
  -1   2   9  127.46    9.18
   2   1   9  142.36   10.24
  -2   1   9  136.70    9.83
   2  -1   9  146.21   10.51
  -2  -1   9  145.03   10.43
   1  -2   9  129.87    9.48
  -1  -2   9  139.38   10.11
   1  -2 -11   72.64    4.42
  -1  -2 -11   75.06    4.50
   2  -1 -11   78.25    4.78
  -2  -1 -11   84.16    5.10
   2   1 -11   72.71    4.45
   1   2 -11   76.21    4.59
  -2   1 -11   69.37    4.15
  -1   2 -11   74.28    4.49
   1  -2 -11   73.88    4.44
   2  -1 -11   78.03    4.68
   2   1 -11   74.31    4.41
   1   2 -11   73.26    4.61
   1   2  11   79.40    5.01
  -1   2  11   73.84    4.62
   2   1  11   71.16    4.50
  -2   1  11   68.93    4.40
   2  -1  11   77.91    5.05
  -2  -1  11   78.24    4.92
   1  -2  11   78.61    4.99
  -1  -2  11   72.60    4.68
   1  -2 -13   35.05    3.91
  -1  -2 -13   38.43    2.92
   2  -1 -13   35.21    2.71
  -2  -1 -13   34.44    2.62
   2   1 -13   34.91    2.65
   1   2 -13   33.32    2.53
  -2   1 -13   32.88    2.67
  -1   2 -13   31.45    2.41
   1  -2 -13   35.87    2.78
   2  -1 -13   33.05    2.47
   1   2  13   35.47    3.30
  -1   2  13   33.51    2.77
   2   1  13   37.62    3.24
  -2   1  13   34.20    2.85
   2  -1  13   28.68    2.44
  -2  -1  13   37.91    4.84
   1  -2  13   36.58    3.04
  -1  -2  13   32.17    2.70
   1  -2 -15   38.08   16.52
   2  -1 -15   41.53   18.02
   2   1 -15   45.63   19.78
   1   2 -15   42.04   18.22
   1   2  15   43.74   18.99
  -1   2  15   39.82   17.31
   2   1  15   42.99   18.73
  -2   1  15   38.65   16.86
   2  -1  15   40.01   17.40
  -2  -1  15   43.52   18.91
   1  -2  15   40.72   17.69
  -1  -2  15   44.28   19.24
   2   2  -2   25.91    1.00
  -2   2  -2   22.97    0.60
   2   2   2   25.51    0.69
  -2   2   2   27.01    0.90
   2  -2   2   25.12    0.63
   2   2  -2   26.16    0.80
   2   2   2   26.30    0.75
   2   2   2   24.93    0.71
  -2   2   2   24.88    0.72
   2   2  -4   59.93    1.62
  -2   2  -4   64.93    1.56
   2   2   4   62.70    1.51
  -2   2   4   59.34    1.50
   2   2  -4   64.92    1.59
   2   2   4   58.92    1.52
  -2   2   4   60.60    1.64
   2  -2   4   61.95    1.72
  -2  -2   4   62.79    1.85
   2   2  -6   30.00    1.28
  -2   2  -6   30.87    1.09
   2   2   6   32.97    1.15
  -2   2   6   30.10    1.22
   2  -2  -6   30.23    1.23
  -2   2  -6   30.72    1.00
   2   2  -6   34.62    1.26
   2   2   6   30.95    1.23
  -2   2   6   31.49    1.33
   2  -2   6   29.61    1.52
  -2  -2   6   31.64    1.54
   2   2  -8  149.68    5.77
  -2   2  -8  154.61    5.87
   2   2   8  150.05    5.70
  -2   2   8  155.48    6.03
   2  -2  -8  146.60    5.66
  -2   2  -8  151.79    5.65
   2   2  -8  147.40    5.61
   2   2   8  152.26    5.91
  -2   2   8  143.71    5.58
   2  -2   8  148.86    5.93
  -2  -2   8  160.86    6.41
  -2  -2 -10  126.73    2.07
   2   2 -10  124.64    1.77
  -2   2 -10  124.57    1.51
   2  -2 -10  131.45    1.79
  -2   2 -10  121.54    1.12
   2   2 -10  124.78    1.56
   2   2  10  121.59    2.23
  -2   2  10  124.85    2.23
   2  -2  10  127.53    2.38
  -2  -2  10  127.80    2.95
   2  -2 -12   22.25    2.67
  -2  -2 -12   19.66    1.90
   2   2 -12   19.44    1.92
  -2   2 -12   20.31    1.90
   2  -2 -12   18.44    1.79
   2   2  12   15.99    1.79
  -2   2  12   17.50    1.90
   2  -2  12   17.92    1.97
  -2  -2  12   20.67    2.16
   2  -2 -14   24.33   10.36
   2   2 -14   22.94    9.77
   2   2  14   22.12    9.47
  -2   2  14   28.59   12.23
   2  -2  14   20.58    8.82
  -2  -2  14   28.25   12.06
   0   3  -1  554.93   12.35
   0   3   1  587.60   13.07
   3   0  -1  559.31   12.50
   3   0   1  613.57   13.65
   0   3  -1  595.40   13.23
   3   0   1  573.04   12.72
  -3   0   1  598.38   13.33
  -3   0  -3  229.70    5.12
   0   3  -3  234.46    5.32
   0   3   3  230.21    5.21
   3   0  -3  235.71    5.39
   0   3  -3  236.45    5.29
   3   0   3  222.64    5.01
   0   3   3  231.21    5.25
   3   0   3  239.48    5.48
  -3   0   3  234.79    5.43
   3   0  -5  152.56    3.72
  -3   0  -5  152.60    3.50
   0   3  -5  150.92    3.56
   0   3   5  153.43    3.59
   3   0  -5  146.53    3.46
   0   3  -5  147.09    3.33
   0   3   5  153.49    3.66
   3   0   5  153.33    3.76
  -3   0   5  151.86    3.80
   0  -3   5  149.10    4.29
   3   0  -7  176.27    5.47
  -3   0  -7  208.20    6.22
   0   3  -7  180.30    5.60
   0   3   7  187.17    5.67
   3   0  -7  179.90    5.47
   0   3  -7  180.19    5.32
   0   3   7  178.10    5.50
   3   0   7  187.10    5.93
  -3   0   7  175.31    5.48
   0  -3   7  167.52    5.29
   3   0  -9  184.32   13.19
  -3   0  -9  176.00   12.52
   0   3  -9  173.16   12.29
   0   3   9  181.13   12.88
   3   0  -9  178.48   12.71
   0   3  -9  179.29   12.65
   0   3   9  174.14   12.44
   3   0   9  189.95   13.58
  -3   0   9  180.40   12.90
   0  -3   9  194.29   13.98
   3   0 -11  111.72    7.65
  -3   0 -11  104.27    7.08
   0   3 -11  106.15    7.21
   0  -3 -11  105.31    7.17
  -3   0 -11  106.42    7.26
   3   0 -11  109.67    7.44
   0   3  11  112.10    7.81
   3   0  11  104.43    7.28
  -3   0  11  110.08    7.66
   0  -3  11   98.71    6.91
   0  -3 -13   56.05    4.09
   3   0 -13   56.94    4.18
   0   3 -13   62.46    4.51
   0  -3 -13   63.06    4.65
   3   0 -13   65.95    4.73
   0   3  13   59.17    4.45
   3   0  13   65.96    5.14
  -3   0  13   62.69    4.73
   0  -3  13   56.47    4.34
   0  -3 -15   52.10   22.58
   3   0 -15   52.75   22.88
   0   3  15   49.52   22.19
   3   0  15   49.72   21.57
  -3   0  15   53.00   23.00
   0  -3  15   59.29   25.71
   3   1   0    4.05    0.65
  -1   3   0    2.51    0.43
  -3   1   0    2.66    0.21
   3  -1   0    3.07    0.68
   3   1   0    3.38    0.20
   1   3   0    3.61    0.23
   3   1  -2   99.77    2.47
   1   3  -2  101.12    2.39
   3  -1   2  100.73    2.25
  -1   3  -2  101.57    2.35
   3   1   2  103.37    2.32
   1   3   2   95.63    2.23
  -3   1  -2   98.79    2.20
  -1   3   2  102.51    2.46
  -3   1   2   98.82    2.38
   3  -1  -2   99.89    2.40
   3   1  -2   99.95    2.43
   3  -1   2   99.76    2.29
   1   3  -2  101.94    2.34
   3   1   2   97.57    2.29
   1   3   2   98.90    2.28
  -1   3   2   97.05    2.25
   3   1   2   99.58    2.33
  -3   1   2   99.85    2.35
   3  -1   2  100.37    2.46
  -3  -1   2  100.25    2.46
  -3   1  -4   51.55    1.23
   1   3  -4   49.73    1.39
  -1   3  -4   51.02    1.29
   1   3   4   47.86    1.22
  -1   3   4   49.81    1.28
   3   1   4   49.81    1.21
  -3   1   4   47.66    1.31
   3  -1  -4   49.17    1.48
   3   1  -4   45.39    1.24
   1   3  -4   49.75    1.20
  -1   3  -4   49.46    1.11
   1   3   4   49.09    1.29
  -1   3   4   50.33    1.33
   3   1   4   49.50    1.33
  -3   1   4   48.69    1.39
   3  -1   4   48.83    1.38
  -3  -1   4   51.59    1.57
   1  -3   4   49.23    2.07
   3   1  -6   97.96    3.25
  -3   1  -6   84.84    2.65
   1   3  -6   81.98    2.65
  -1   3  -6   85.86    2.75
   1   3   6   80.99    2.59
  -1   3   6   78.27    2.63
   3   1   6   87.78    2.75
   3  -1  -6   79.62    2.61
   3   1  -6   82.20    2.68
  -1   3  -6   83.53    2.53
   1   3  -6   88.33    2.77
   1   3   6   80.02    2.64
  -1   3   6   86.81    2.85
   3   1   6   83.70    2.77
  -3   1   6   87.41    2.97
   3  -1   6   82.29    2.85
  -3  -1   6   82.55    3.17
   1  -3   6   74.58    2.77
  -1  -3   6   83.95    2.98
   3  -1  -8   38.72    1.90
  -3  -1  -8   36.82    1.60
   3   1  -8   37.00    1.79
  -3   1  -8   35.32    1.54
   1   3  -8   36.55    1.62
  -1   3  -8   38.19    1.66
   1   3   8   36.92    1.74
  -1   3   8   33.99    1.63
   3  -1  -8   36.52    1.64
   3   1  -8   33.48    1.55
  -1   3  -8   37.38    1.48
   1   3  -8   35.28    1.48
   1   3   8   38.45    1.95
  -1   3   8   36.60    2.97
   3   1   8   31.55    1.58
  -3   1   8   37.44    1.92
   3  -1   8   35.63    2.38
  -3  -1   8   35.44    1.89
   1  -3   8   35.13    1.83
  -1  -3   8   41.47    2.10
   3  -1 -10   47.57    1.32
   3   1 -10   46.50    1.35
  -3   1 -10   46.71    1.05
   1   3 -10   49.08    1.23
  -1   3 -10   45.10    1.06
   1  -3 -10   49.90    1.92
   3  -1 -10   46.83    1.17
   3   1 -10   47.77    0.95
   1   3 -10   48.70    0.92
   1   3  10   48.84    1.64
  -1   3  10   45.71    1.44
   3   1  10   49.64    1.53
  -3   1  10   52.37    1.60
   3  -1  10   42.56    1.45
  -3  -1  10   46.70    1.62
   1  -3  10   46.14    1.74
  -1  -3  10   46.15    1.78
   1  -3 -12   31.62    2.92
  -1  -3 -12   28.50    2.64
   3  -1 -12   33.88    3.21
  -3  -1 -12   28.73    2.66
   3   1 -12   32.21    3.13
  -3   1 -12   28.47    2.65
   1   3 -12   33.59    3.04
  -1   3 -12   30.41    2.77
   1  -3 -12   32.32    3.06
   3  -1 -12   34.33    3.19
   3   1 -12   31.33    2.87
   1   3  12   33.39    3.20
  -1   3  12   24.00    2.50
   3   1  12   29.33    2.89
  -3   1  12   36.11    3.57
   3  -1  12   32.54    3.17
  -3  -1  12   25.36    2.61
   1  -3  12   32.01    3.19
  -1  -3  12   28.12    2.79
   1  -3 -14    8.48    1.27
  -1  -3 -14    9.16    1.19
   3  -1 -14   11.00    1.47
   3   1 -14    9.13    2.76
   1   3 -14    9.18    2.98
   1  -3 -14    8.61    1.12
   1   3  14   10.29    4.13
  -1   3  14    9.13    3.27
   3   1  14    8.67    4.03
  -3   1  14    9.67    3.84
   3  -1  14    8.32    4.20
  -3  -1  14   12.57    1.73
   1  -3  14   10.53    1.61
  -1  -3  14   10.02    5.24
   3   2  -1  299.05    6.79
   2   3  -1  304.90    6.91
   3   2   1  296.98    6.65
   2   3   1  308.62    6.91
  -2   3  -1  294.42    6.59
  -3   2  -1  305.09    6.83
  -3   2   1  303.43    6.86
   3  -2  -1  295.38    6.75
   3  -2   1  307.75    6.97
   3   2  -1  304.95    6.95
   2   3  -1  300.46    6.75
   3   2   1  302.80    6.83
   2   3   1  299.78    6.77
   2   3   1  281.43    6.28
   3   2   1  306.89    6.84
  -2   3   1  310.02    6.93
  -3   2   1  300.87    6.71
   3   2  -3  423.25    9.59
   2   3  -3  413.54    9.34
  -2   3  -3  422.04    9.44
  -3   2  -3  423.04    9.43
   2   3   3  427.15    9.53
   3   2   3  417.19    9.30
  -2   3   3  399.34    9.00
  -3   2   3  427.94    9.63
   3   2  -3  421.15    9.45
   2   3  -3  397.19    8.90
   3   2   3  395.96    8.88
   2   3   3  415.25    9.30
  -2   3   3  407.52    9.15
   3   2   3  409.23    9.17
  -3   2   3  417.33    9.38
   3  -2   3  423.39    9.61
   3   2  -5  311.39    9.49
   2   3  -5  312.76    9.53
  -3   2  -5  325.53    9.82
  -2   3  -5  309.52    9.30
   2   3   5  314.46    9.45
   3   2   5  319.41    9.58
  -2   3   5  309.43    9.41
  -3   2   5  309.95    9.44
   3  -2  -5  334.18   10.15
   3   2  -5  299.25    9.03
   2   3  -5  304.74    9.15
   2   3   5  317.01    9.60
  -2   3   5  317.95    9.68
   3   2   5  316.92    9.60
  -3   2   5  319.79    9.74
   3  -2   5  320.07    9.79
  -3  -2   5  313.30    9.91
   2  -3   5  311.81    9.55
  -2  -3   5  313.20    9.63
   3   2  -7  190.42    5.87
   2   3  -7  182.67    5.57
  -3   2  -7  190.19    5.66
  -2   3  -7  195.32    5.88
   2   3   7  189.45    5.71
  -2   3   7  192.01    5.85
   3   2   7  188.30    5.62
  -3   2   7  189.79    5.83
   3  -2  -7  190.46    5.87
  -2   3  -7  192.13    5.62
   3   2  -7  191.07    5.73
   2   3  -7  199.20    5.93
   2   3   7  191.03    5.82
  -2   3   7  181.68    5.64
   3   2   7  192.67    5.89
  -3   2   7  192.74    5.94
   3  -2   7  194.91    6.13
  -3  -2   7  192.32    6.14
   2  -3   7  187.54    5.95
  -2  -3   7  187.06    5.91
   3   2  -9   76.97    4.80
   2   3  -9   77.98    4.85
  -3   2  -9   79.81    4.87
  -2   3  -9   78.34    4.77
   2   3   9   77.56    4.72
  -2   3   9   84.42    5.22
   2  -3  -9   75.63    4.69
  -3   2  -9   80.19    4.81
   3  -2  -9   89.14    5.49
  -2   3  -9   73.17    4.38
   3   2  -9   75.12    4.61
   2   3  -9   76.70    4.66
   2   3   9   86.29    5.44
  -2   3   9   79.50    4.98
   3   2   9   83.72    5.30
  -3   2   9   78.99    5.00
   3  -2   9   80.18    5.09
  -3  -2   9   77.33    4.98
   2  -3   9   81.55    5.19
  -2  -3   9   82.89    5.29
   3  -2 -11   71.53    5.01
  -3  -2 -11   71.28    5.07
   3   2 -11   69.98    4.89
   2   3 -11   72.71    5.08
  -3   2 -11   77.01    5.28
  -2   3 -11   69.15    4.74
   2  -3 -11   69.57    4.83
   3  -2 -11   75.38    5.18
   3   2 -11   75.97    5.20
   2   3 -11   70.16    4.79
   2   3  11   66.67    4.95
  -2   3  11   77.26    5.50
   3   2  11   78.28    5.62
  -3   2  11   75.66    5.40
   3  -2  11   71.65    5.19
  -3  -2  11   73.72    5.32
   2  -3  11   71.48    5.21
  -2  -3  11   59.96    4.39
   2  -3 -13   45.56    3.39
  -2  -3 -13   54.57    3.99
   3  -2 -13   55.41    4.11
   3   2 -13   49.71    3.65
   2   3 -13   50.18    3.66
  -2   3 -13   46.30    3.37
   2  -3 -13   54.84    4.02
   3  -2 -13   53.08    3.87
   2   3  13   48.66    3.77
  -2   3  13   56.09    4.24
   3   2  13   46.68    3.59
  -3   2  13   48.07    3.73
   3  -2  13   50.55    3.93
  -3  -2  13   48.24    3.78
   2  -3  13   60.40    4.66
  -2  -3  13   45.00    3.56
   2  -3 -15   35.07   16.09
   3  -2 -15   29.22   12.75
   3   2 -15   34.83   15.12
   2   3 -15   29.60   12.86
   2   3  15   32.76   14.26
  -2   3  15   29.47   12.82
   3   2  15   32.67   14.24
  -3   2  15   34.91   15.20
   3  -2  15   34.37   14.93
  -3  -2  15   34.79   15.14
   2  -3  15   29.74   12.95
  -2  -3  15   28.75   13.34
   3   3   0  512.77   11.49
  -3   3   0  514.88   11.49
   3  -3   0  530.94   11.90
   3   3   0  483.53   10.84
   3   3  -2  473.09   10.66
   3   3   2  507.57   11.33
  -3   3  -2  511.92   11.42
  -3   3   2  499.77   11.24
   3  -3  -2  522.29   11.76
   3  -3   2  522.07   11.64
   3   3   2  510.05   11.41
   3   3   2  500.72   11.15
  -3   3   2  516.22   11.52
   3   3  -4   78.96    2.09
  -3   3  -4   78.05    1.81
   3   3   4   77.72    1.83
  -3   3   4   79.32    2.02
   3  -3  -4   78.04    2.08
   3   3  -4   81.54    1.97
   3   3   4   82.10    2.01
  -3   3   4   76.53    1.91
   3  -3   4   77.43    2.06
   3   3  -6  299.31    9.17
  -3   3  -6  291.69    8.79
   3   3   6  303.48    9.16
  -3   3   6  293.20    8.95
   3  -3  -6  284.93    8.70
   3   3  -6  301.26    9.11
   3   3   6  288.64    8.81
  -3   3   6  292.02    8.93
   3  -3   6  292.23    9.03
  -3  -3   6  301.07    9.39
   3   3  -8   37.77    1.75
  -3   3  -8   39.88    1.66
   3   3   8   36.11    1.58
  -3   3   8   38.05    1.71
   3  -3  -8   41.15    2.08
  -3   3  -8   39.41    1.51
   3   3  -8   40.93    1.72
   3   3   8   38.81    1.95
  -3   3   8   40.97    2.49
   3  -3   8   39.58    2.07
  -3  -3   8   43.79    2.42
   3   3 -10  214.59    2.32
  -3   3 -10  204.13    2.02
   3  -3 -10  219.20    2.66
   3   3 -10  212.81    2.09
   3   3  10  206.52    3.07
  -3   3  10  218.39    3.22
   3  -3  10  214.67    3.01
  -3  -3  10  204.93    2.87
   3  -3 -12    4.45    1.55
  -3  -3 -12    5.79    1.51
   3   3 -12    4.71    1.27
   3  -3 -12    5.90    1.57
   3   3  12    5.13    1.28
  -3   3  12    5.82    2.29
   3  -3  12    6.01    2.26
  -3  -3  12    6.45    1.43
   3  -3 -14  109.59   11.62
   3   3 -14  110.95   11.76
   3  -3 -14  110.09   11.67
   3   3  14  117.22    2.46
  -3   3  14  113.20    3.55
   3  -3  14  109.98   11.82
  -3  -3  14  111.32   11.90
   4   0   0    3.60    0.96
   0   4   0    2.95    0.24
   4   0   0    3.15    1.14
   4   0   0    3.12    0.10
   4   0  -2    5.66    1.27
   0   4  -2    4.80    0.28
   0   4   2    4.33    0.46
   4   0   2    4.46    0.20
   4   0  -2    4.79    1.42
   4   0   2    4.95    0.27
   0   4  -2    4.96    0.23
   0   4   2    4.71    0.23
   4   0   2    5.22    0.44
  -4   0   2    4.62    0.33
   4   0  -4    1.23    1.23
  -4   0  -4    1.22    0.10
   0   4  -4    1.75    0.47
   0   4   4    1.29    0.39
   4   0  -4    1.22    0.31
   0   4  -4    1.76    0.28
   4   0   4    1.36    0.19
   0   4   4    2.12    0.63
   4   0   4    0.81    0.73
  -4   0   4    1.58    0.43
   4   0  -6    4.74    1.55
  -4   0  -6    3.22    0.69
   0   4  -6    2.70    0.73
   0   4   6    4.94    1.25
   4   0  -6    3.73    1.06
   0   4  -6    3.63    0.24
   0   4   6    3.92    1.11
   4   0   6    4.11    1.59
  -4   0   6    3.73    1.08
   4   0  -8    3.72    1.60
  -4   0  -8    2.49    0.96
   0   4  -8    2.81    1.09
   0   4   8    2.77    0.81
   4   0  -8    3.60    1.37
   0   4  -8    2.68    0.56
   0   4   8    2.85    0.67
   4   0   8    3.06    0.98
  -4   0   8    4.87    1.83
   0  -4   8    2.44    1.00
  -4   0 -10   -0.58    0.61
   0   4 -10    0.37    0.30
   0   4  10    0.47    0.83
   4   0 -10    0.20    0.44
   0   4  10    0.09    0.69
   4   0  10   -0.81    1.26
  -4   0  10   -0.16    0.87
   0  -4  10    0.51    1.11
   4   0 -12    0.01    0.65
   0   4 -12    0.32    0.41
   4   0 -12    0.01    0.56
   0   4  12    1.15    1.02
   4   0  12   -0.25    0.74
  -4   0  12    1.32    0.90
   0  -4  12   -2.16    1.28
   0  -4 -14   -0.35    0.74
   4   0 -14    0.23    0.62
   0   4 -14    0.50    0.33
   0  -4 -14   -0.40    0.76
   0   4  14    0.37    1.09
   4   0  14    0.50    1.06
  -4   0  14    1.06    1.54
   0  -4  14    0.79    0.79
   4   1  -1  239.61    5.49
   4   1   1  240.93    5.42
   1   4  -1  245.67    5.57
  -1   4  -1  254.81    5.73
   1   4   1  250.78    5.65
  -1   4   1  237.14    5.47
  -4   1  -1  232.19    5.20
  -4   1   1  248.28    5.65
   4  -1  -1  232.82    5.38
   4  -1   1  253.79    5.78
   4   1  -1  247.07    5.67
   4   1   1  232.26    5.28
   1   4  -1  240.56    5.42
   1   4   1  244.45    5.46
  -1   4   1  234.83    5.25
   4   1   1  239.06    5.33
  -4   1   1  245.92    5.51
   4  -1   1  248.96    5.59
   4   1  -3  228.43    5.31
   1   4  -3  232.25    5.32
  -1   4  -3  235.41    5.34
   1   4   3  229.33    5.19
   4   1   3  228.95    5.10
  -1   4   3  222.06    5.04
  -4   1   3  244.22    5.64
   4  -1  -3  230.19    5.42
   4   1  -3  237.23    5.45
   1   4  -3  222.17    5.02
   4  -1   3  242.45    5.45
   4   1   3  229.94    5.21
   1   4   3  227.93    5.16
  -1   4   3  221.32    5.03
   4   1   3  224.26    5.11
  -4   1   3  233.30    5.35
   4  -1   3  236.91    5.44
  -4  -1   3  222.58    5.21
   4   1  -5  191.64    5.98
  -4   1  -5  215.92    6.47
   1   4  -5  219.23    6.71
  -1   4  -5  208.96    6.36
   1   4   5  209.66    6.37
  -1   4   5  217.14    6.63
   4   1   5  214.56    6.45
   4  -1  -5  208.97    6.46
   4   1  -5  207.56    6.34
   1   4  -5  214.04    6.44
  -1   4  -5  206.55    6.15
   1   4   5  204.50    6.28
  -1   4   5  216.93    6.62
   4   1   5  220.16    6.76
  -4   1   5  211.21    6.53
   4  -1   5  211.88    6.55
  -4  -1   5  213.57    6.66
  -4  -1  -7  160.06    4.80
   4   1  -7  159.42    4.98
  -4   1  -7  152.43    4.56
   1   4  -7  153.73    4.72
  -1   4  -7  166.56    5.04
   1   4   7  152.17    4.60
  -1   4   7  155.03    4.76
   4  -1  -7  156.20    4.91
   4   1  -7  152.84    4.69
   1   4  -7  155.32    4.62
  -1   4  -7  149.87    4.38
   1   4   7  165.18    5.07
  -1   4   7  159.53    4.95
   4   1   7  159.59    4.96
  -4   1   7  165.03    5.17
   4  -1   7  150.50    4.86
  -4  -1   7  151.75    4.86
   1  -4   7  160.56    5.26
  -1  -4   7  159.14    5.17
   4  -1  -9  114.88    7.07
  -4  -1  -9  124.40    7.52
   4   1  -9  122.59    7.62
  -4   1  -9  122.10    7.34
   1   4  -9  119.01    7.21
  -1   4  -9  123.62    7.46
   1   4   9  127.85    7.82
  -1   4   9  117.53    7.19
   4  -1  -9  116.51    7.07
   4   1  -9  117.63    7.15
   1   4  -9  112.71    6.76
  -1   4  -9  111.84    6.66
   1   4   9  113.75    7.01
  -1   4   9  119.14    7.34
   4   1   9  124.43    7.78
  -4   1   9  120.74    7.46
   4  -1   9  126.75    7.85
  -4  -1   9  122.38    7.59
   1  -4   9  121.94    7.70
  -1  -4   9  122.61    7.64
   4  -1 -11   91.31    6.32
  -4  -1 -11   94.10    6.40
   4   1 -11   94.89    6.52
  -4   1 -11   93.36    6.34
   1   4 -11   90.19    6.17
  -1   4 -11   93.85    6.43
   1   4  11   93.01    6.37
  -1   4  11   89.05    6.15
   1  -4 -11   98.83    6.79
   4  -1 -11   98.61    6.73
   4   1 -11   92.10    6.32
   1   4  11   90.26    6.25
  -1   4  11   88.82    6.19
   4   1  11   88.71    6.24
  -4   1  11   93.26    6.50
   4  -1  11   93.45    6.58
  -4  -1  11   93.41    6.94
   1  -4  11   92.78    6.78
  -1  -4  11   96.61    6.84
   1  -4 -13   70.45    1.77
  -1  -4 -13   74.93    1.61
   4  -1 -13   81.54    1.85
   4   1 -13   75.64    1.73
   1   4 -13   70.58    1.34
  -1   4 -13   72.52    1.35
   1  -4 -13   76.12    1.53
   4  -1 -13   81.47    1.55
   4   1 -13   79.02    1.72
   1   4  13   72.76    1.96
  -1   4  13   73.89    2.44
   4   1  13   73.43    2.05
  -4   1  13   68.90    1.94
   4  -1  13   69.99    1.97
  -4  -1  13   73.83    2.37
   1  -4  13   83.34    2.64
  -1  -4  13   81.09    3.02
   1  -4 -15   38.07    5.10
   4  -1 -15   45.40    6.03
   4   1 -15   43.83    6.20
   1   4 -15   39.59    5.25
   1   4  15   40.60    5.48
  -1   4  15   39.27    5.42
   4   1  15   39.22    5.30
  -4   1  15   39.34    5.38
   4  -1  15   35.66    5.01
  -4  -1  15   40.45    5.49
   1  -4  15   43.57    5.89
  -1  -4  15   44.04    5.95
   4   2   0   44.50    1.19
   2   4   0   43.87    1.11
  -2   4   0   45.04    1.11
  -4   2   0   42.43    1.09
   4  -2   0   42.50    1.15
   4   2   0   40.01    1.06
   2   4   0   42.27    1.10
  -4   2   0   43.14    0.97
   4   2  -2  521.33   11.85
   2   4  -2  504.94   11.33
   4   2   2  499.73   11.14
  -2   4  -2  493.34   11.05
   2   4   2  523.48   11.71
  -4   2  -2  508.13   11.29
  -2   4   2  469.05   10.50
  -4   2   2  490.91   11.07
   4  -2  -2  504.32   11.42
   4  -2   2  494.04   11.04
   4   2  -2  505.23   11.37
   2   4  -2  492.50   11.02
   4   2   2  513.55   11.52
   2   4   2  497.23   11.08
  -2   4   2  506.79   11.34
   4   2   2  482.80   10.76
  -4   2   2  493.74   11.03
   4   2  -4   67.68    1.85
   2   4  -4   69.27    1.79
  -2   4  -4   63.89    1.54
  -4   2  -4   68.58    1.56
   2   4   4   67.22    1.63
   4   2   4   67.75    1.57
  -2   4   4   66.15    1.71
  -4   2   4   65.31    1.77
   4  -2  -4   66.44    1.82
   4   2  -4   65.91    1.74
   4  -2   4   67.08    1.54
   4   2   4   66.04    1.63
   2   4   4   66.67    1.66
  -2   4   4   65.76    1.67
   4   2   4   67.64    1.71
  -4   2   4   65.74    1.71
   4  -2   4   66.88    1.86
  -4  -2   4   67.08    2.01
   4   2  -6  333.95   10.41
   2   4  -6  319.00    9.71
  -4   2  -6  321.51    9.63
  -2   4  -6  318.12    9.59
   2   4   6  329.77    9.93
  -2   4   6  319.11    9.71
   4   2   6  325.13    9.82
  -4   2   6  321.45    9.84
   4  -2  -6  313.93    9.60
   4   2  -6  312.85    9.54
   2   4  -6  319.17    9.65
   2   4   6  325.24    9.91
  -2   4   6  318.83    9.77
   4   2   6  316.53    9.66
  -4   2   6  325.59    9.98
   4  -2   6  324.44   10.06
  -4  -2   6  310.28    9.63
   2  -4   6  321.10    9.93
   4   2  -8    2.42    0.83
   2   4  -8    2.36    0.51
  -4   2  -8    3.01    0.69
  -2   4  -8    2.83    0.53
   2   4   8    3.90    0.92
  -2   4   8    2.78    0.86
   4  -2  -8    2.51    0.81
   4   2  -8    2.78    0.73
   2   4  -8    2.32    0.59
   2   4   8    3.03    0.59
  -2   4   8    3.52    1.34
   4   2   8    2.94    1.03
  -4   2   8    2.79    1.13
   4  -2   8    3.61    1.23
  -4  -2   8    2.98    1.99
   2  -4   8    2.64    1.05
  -2  -4   8   -0.09    0.98
   4  -2 -10  107.18    2.14
  -4  -2 -10  104.50    1.50
   4   2 -10  108.27    2.02
   2   4 -10  109.53    1.64
  -2   4 -10  106.46    1.31
   2   4  10  106.87    1.69
  -2   4  10  103.73    1.82
   2  -4 -10  101.66    1.79
   4  -2 -10  107.67    2.50
   4   2 -10  111.13    1.45
   2   4 -10  105.38    1.17
   2   4  10  108.82    2.11
  -2   4  10  103.38    1.83
   4   2  10  107.86    2.27
  -4   2  10  110.06    2.45
   4  -2  10  105.15    2.14
  -4  -2  10  109.09    2.35
   2  -4  10  101.80    2.23
  -2  -4  10  104.68    2.28
   4  -2 -12    2.55    1.14
   4   2 -12    1.59    0.85
   2   4 -12    1.33    0.37
  -2   4 -12    1.56    0.56
   2  -4 -12    1.71    0.67
   4  -2 -12    1.88    0.53
   4   2 -12    1.28    0.33
   2   4  12    1.39    0.67
  -2   4  12   -0.90    1.19
   4   2  12    0.52    1.06
  -4   2  12    1.87    0.80
   4  -2  12    1.68    1.40
  -4  -2  12    1.31    1.43
   2  -4  12    2.35    0.64
  -2  -4  12    2.41    1.14
   2  -4 -14   76.98    8.26
   4  -2 -14   73.26    7.87
   4   2 -14   71.04    7.60
   2   4 -14   69.62    7.43
   2  -4 -14   65.83    7.04
   4  -2 -14   67.15    7.19
   2   4  14   72.21    8.84
  -2   4  14   72.49    7.80
   4   2  14   65.17    7.07
  -4   2  14   77.15    8.43
   4  -2  14   71.60    7.78
  -4  -2  14   75.26    8.17
   2  -4  14   77.97    8.48
  -2  -4  14   66.07    7.22
   4   3  -1   88.40    2.13
   3   4  -1   90.90    2.18
   4   3   1   96.89    2.24
   3   4   1   94.52    2.19
  -3   4  -1   93.22    2.16
  -4   3  -1   96.05    2.21
  -3   4   1   96.49    2.29
  -4   3   1   89.30    2.13
   3  -4   1   94.25    2.26
   4  -3  -1   93.79    2.36
   4  -3   1   94.92    2.31
   4   3  -1   93.14    2.27
   3   4  -1   92.23    2.24
   4   3   1   93.37    2.22
   3   4   1   91.25    2.21
   3   4   1   96.51    2.19
   4   3   1   93.88    2.14
  -3   4   1   93.07    2.12
  -4   3   1   92.03    2.09
   4   3  -3  120.78    2.98
   3   4  -3  124.17    3.01
  -3   4  -3  124.19    2.83
  -4   3  -3  118.35    2.68
   4   3   3  120.99    2.75
   3   4   3  126.09    2.90
  -3   4   3  117.97    2.80
  -4   3   3  120.07    2.87
   4  -3  -3  119.95    2.97
   3  -4   3  122.52    2.78
   4  -3   3  124.84    2.86
   4   3  -3  119.50    2.85
   3   4  -3  116.50    2.74
   4   3   3  114.63    2.72
   3   4   3  121.68    2.82
   4   3   3  115.80    2.69
  -3   4   3  118.88    2.79
  -4   3   3  120.95    2.83
   4   3  -5   66.01    2.25
   3   4  -5   67.99    2.31
  -3   4  -5   67.95    2.13
  -4   3  -5   71.44    2.19
   3   4   5   64.66    2.04
   4   3   5   69.19    2.16
  -3   4   5   66.30    2.23
  -4   3   5   64.54    2.16
   4  -3  -5   66.36    2.24
   4   3  -5   62.16    2.06
   3   4  -5   67.54    2.18
   3   4   5   63.69    2.10
   4   3   5   67.69    2.25
  -3   4   5   64.41    2.18
  -4   3   5   66.66    2.22
   4  -3   5   66.05    2.39
   4   3  -7   39.68    2.73
   3   4  -7   38.33    1.77
  -4   3  -7   42.61    1.70
  -3   4  -7   39.98    1.61
   3   4   7   40.78    1.70
   4   3   7   40.31    1.67
  -3   4   7   39.34    1.73
  -4   3   7   41.04    2.05
   3  -4  -7   41.91    2.64
   4  -3  -7   38.66    2.09
   4   3  -7   39.71    1.70
   3   4  -7   36.82    1.57
   3   4   7   42.09    1.88
   4   3   7   40.34    1.82
  -3   4   7   36.64    1.69
  -4   3   7   39.55    1.84
   4  -3   7   37.78    1.90
  -4  -3   7   36.79    1.88
   3  -4   7   41.27    2.06
   4   3  -9   18.30    1.51
   3   4  -9   16.16    1.30
  -4   3  -9   16.15    1.09
  -3   4  -9   16.78    1.16
   3   4   9   18.61    1.30
  -3   4   9   15.09    1.25
   4   3   9   15.64    1.63
  -4   3   9   19.87    1.49
   3  -4  -9   14.43    1.30
   4  -3  -9   17.09    1.34
   4   3  -9   17.58    1.33
   3   4  -9   16.02    1.11
   3   4   9   18.00    1.51
   4   3   9   14.66    1.22
  -3   4   9   19.07    1.59
  -4   3   9   19.61    1.67
   4  -3   9   19.31    1.60
  -4  -3   9   14.90    1.61
   3  -4   9   14.91    1.41
  -3  -4   9   17.13    1.60
  -4  -3 -11   18.97    1.53
   4   3 -11   15.71    1.32
   3   4 -11   19.64    1.71
  -3   4 -11   19.74    1.50
   3  -4 -11   18.50    1.60
   4  -3 -11   19.84    1.72
   4   3 -11   18.08    1.41
   3   4 -11   17.43    1.30
   3   4  11   18.49    1.62
   4   3  11   17.09    1.53
  -3   4  11   21.21    1.85
  -4   3  11   22.83    1.96
   4  -3  11   16.36    1.67
   3  -4  11   16.82    1.67
  -4  -3  11   17.43    1.98
  -3  -4  11   17.47    1.77
   3  -4 -13   10.00    0.81
   4  -3 -13   12.25    0.97
   4   3 -13   10.39    2.57
   3   4 -13   11.38    2.56
   3  -4 -13   11.46    1.93
   4  -3 -13    9.40    2.21
   3   4  13   12.98    4.05
  -3   4  13   12.41    2.97
   4   3  13    9.02    3.69
  -4   3  13   10.65    3.86
   4  -3  13    9.83    4.01
  -4  -3  13    9.22    3.64
   3  -4  13   13.63    4.01
  -3  -4  13   10.89    4.59
   3  -4 -15    8.86    3.21
   4  -3 -15   11.93    1.84
   4   3 -15    9.46    2.90
   3   4 -15    8.91    3.10
   3  -4 -15    9.42    2.42
   3   4  15    7.00    3.27
   4   3  15    7.74    2.86
  -3   4  15    8.64    2.89
  -4   3  15    8.07    3.96
   4  -3  15   11.14    1.79
  -4  -3  15    8.88    4.32
   3  -4  15    7.66    3.21
   4   4   0  200.40    4.61
  -4   4   0  202.27    4.63
   4  -4   0  196.75    4.56
   4   4   0  193.18    4.50
  -4   4   0  191.30    4.29
   4   4  -2  856.72   19.27
  -4   4  -2  870.24   19.40
  -4   4   2  896.07   26.79
   4  -4  -2  910.23   27.30
   4  -4   2  951.45   28.40
   4   4  -2  865.77   19.56
   4   4   2  841.98   18.89
   4   4   2  858.76   19.21
  -4   4   2  881.60   26.25
   4   4  -4   63.84    2.17
  -4   4  -4   64.94    2.00
   4   4   4   67.29    2.09
  -4   4   4   64.26    2.14
   4  -4  -4   65.99    2.32
   4   4  -4   65.77    2.13
   4  -4   4   68.59    2.07
   4   4   4   64.93    2.07
  -4   4   4   67.64    2.18
   4   4  -6  493.12   14.91
  -4   4  -6  490.46   14.29
   4   4   6  513.09   14.98
  -4   4   6  493.92   14.74
   4  -4  -6  489.85   14.58
   4   4  -6  505.79   14.98
   4   4   6  492.63   14.49
  -4   4   6  489.14   14.40
   4   4  -8    1.94    0.95
  -4   4  -8    2.55    0.64
   4   4   8    2.25    0.54
  -4   4   8    2.28    0.54
   4  -4  -8    2.47    0.95
   4   4  -8    1.36    0.45
   4   4   8    1.55    0.57
  -4   4   8    1.37    1.14
   4  -4   8    1.95    0.58
   4   4 -10  267.61   15.52
  -4   4 -10  284.11   18.97
  -4   4  10  301.32   20.24
   4  -4 -10  299.68   20.18
   4   4 -10  278.44   16.06
   4   4  10  271.74   16.38
  -4   4  10  268.15   15.83
   4  -4  10  281.54   19.20
   4   4 -12   13.42    1.67
   4  -4 -12   17.53    3.30
   4   4  12   13.75    1.57
  -4   4  12   19.86    2.12
   4  -4  12   19.82    2.13
   4  -4 -14  117.05    2.36
   4   4 -14  113.01    1.97
   4  -4 -14  120.91   52.35
   4   4  14  123.62   53.52
  -4   4  14  119.24   51.63
   4  -4  14  118.03    2.55
   5   0  -1   78.17    1.96
   5   0   1   78.31    1.89
   0   5  -1   76.49    1.83
   0   5   1   77.46    1.85
   5   0  -1   76.84    1.90
   5   0   1   79.49    1.92
   0   5   1   81.19    1.87
   5   0   1   75.82    1.73
   5   0  -3  199.03    4.67
   0   5  -3  211.84    4.84
   0   5   3  206.72    4.71
   5   0  -3  217.51    5.09
   5   0   3  209.40    4.76
   0   5  -3  210.19    4.77
   0   5   3  210.93    4.79
   5   0   3  208.21    4.79
  -5   0   3  211.45    4.94
   5   0  -5  242.94    7.54
  -5   0  -5  245.48    7.32
   0   5  -5  238.54    7.26
   0   5   5  232.67    7.08
   5   0  -5  240.43    7.43
   0   5  -5  247.03    7.40
   5   0   5  240.90    7.26
   0   5   5  247.43    7.58
   5   0   5  239.50    7.37
  -5   0   5  241.17    7.49
   5   0  -7  147.14    5.77
  -5   0  -7  147.32    4.39
   0   5  -7  141.31    4.36
   0   5   7  150.23    4.64
   5   0  -7  147.41    4.57
   0   5  -7  151.73    4.47
   0   5   7  146.92    4.60
   5   0   7  160.35    6.21
  -5   0   7  141.08    5.57
   5   0  -9   96.41    6.05
  -5   0  -9   82.15    4.96
   0   5  -9   79.02    4.83
   0   5   9   84.03    5.13
   5   0  -9   78.51    4.91
   0   5  -9   88.12    5.27
   0   5   9   89.44    5.67
   5   0   9   82.63    5.37
  -5   0   9   81.35    5.26
   5   0 -11   77.51    5.48
   0   5 -11   74.24    5.19
   0   5  11   76.21    5.41
   5   0 -11   73.53    5.13
   0   5  11   70.19    5.13
   5   0  11   68.65    4.93
  -5   0  11   69.33    5.02
   5   0 -13   73.24    1.70
   0   5 -13   74.35    1.51
   0  -5 -13   81.11    1.82
   5   0 -13   80.46    1.56
   0   5  13   78.04    1.92
   5   0  13   80.46    2.19
  -5   0  13   83.36    2.17
   0  -5 -15   37.93    5.10
   5   0 -15   36.82    4.92
   0   5  15   37.19    5.09
   5   0  15   37.91    5.22
  -5   0  15   39.99    5.45
   5   1   0    9.56    0.39
   1   5   0   10.99    0.40
  -1   5   0   10.14    0.38
  -5   1   0   11.87    0.50
   5  -1   0   10.42    0.44
   5   1   0   10.48    0.46
   5   1   0   10.58    0.26
   5   1  -2   68.81    1.82
   5   1   2   73.98    1.71
   1   5  -2   72.66    1.77
  -1   5  -2   70.54    1.72
   1   5   2   71.49    1.70
  -1   5   2   72.60    1.75
  -5   1   2   73.41    1.88
   5  -1  -2   69.39    1.81
   5   1  -2   75.06    1.91
   5  -1   2   68.71    1.67
   5   1   2   75.57    1.84
   1   5  -2   73.69    1.79
   1   5   2   73.32    1.71
  -1   5   2   70.24    1.66
   5   1   2   71.57    1.67
  -5   1   2   71.71    1.74
   5  -1   2   70.37    1.71
   5   1  -4   98.51    3.26
   1   5  -4  100.46    3.16
  -1   5  -4  100.34    3.11
   1   5   4  113.29    3.51
  -1   5   4   96.66    3.04
   5   1   4  101.52    3.05
   5  -1  -4  101.04    3.25
   5   1  -4   98.48    3.14
   1   5  -4  105.68    3.23
   5  -1   4  106.16    3.24
   5   1   4   96.46    2.98
   1   5   4   97.51    3.03
  -1   5   4  104.01    3.25
   5   1   4   97.88    3.06
  -5   1   4  103.24    3.31
   5  -1   4  104.47    3.32
  -5  -1   4   99.85    3.41
   5   1  -6   54.05    1.95
   1   5  -6   53.90    2.02
  -5   1  -6   53.96    1.62
  -1   5  -6   54.13    1.77
   1   5   6   55.57    1.85
  -1   5   6   54.11    1.86
   5  -1  -6   62.39    2.17
   5   1  -6   57.72    1.97
   1   5  -6   57.46    1.78
  -1   5  -6   53.89    1.58
   1   5   6   55.11    1.89
  -1   5   6   56.91    1.96
   5   1   6   57.30    1.97
  -5   1   6   55.17    2.04
   5  -1   6   54.55    2.00
  -5  -1   6   57.26    2.12
   5  -1  -8   16.70    1.47
  -5  -1  -8   22.11    1.67
   5   1  -8   22.32    1.96
  -5   1  -8   20.80    1.55
   1   5  -8   23.36    1.85
  -1   5  -8   22.19    1.73
   1   5   8   22.56    1.75
  -1   5   8   18.98    1.57
   5  -1  -8   21.54    2.44
   5   1  -8   20.29    1.90
   1   5  -8   19.69    1.45
  -1   5  -8   20.12    1.43
   1   5   8   20.37    1.72
  -1   5   8   23.32    1.99
   5   1   8   20.06    1.72
  -5   1   8   21.29    3.68
   5  -1   8   21.53    1.87
  -5  -1   8   19.76    1.83
   5  -1 -10    9.93    1.00
  -5  -1 -10   10.40    0.86
   5   1 -10   11.13    3.29
   1   5 -10   10.43    0.91
  -1   5 -10    9.71    0.79
   1   5  10    9.64    2.41
  -1   5  10    9.56    0.83
   5  -1 -10   11.34    1.00
   5   1 -10    9.95    0.88
   1   5  10   10.21    1.02
  -1   5  10   11.45    3.66
   5   1  10    9.92    1.06
  -5   1  10   10.70    3.83
   5  -1  10    8.74    1.05
  -5  -1  10    8.65    3.01
   5  -1 -12   30.91    2.96
   5   1 -12   32.35    3.04
   1   5 -12   23.83    3.32
  -1   5 -12   27.22    2.50
   1   5  12   27.56    2.54
  -1   5  12   29.16    2.91
   1  -5 -12   24.14    2.72
   5  -1 -12   26.67    2.55
   5   1 -12   27.62    2.62
   1   5  12   24.98    2.45
  -1   5  12   29.31    3.14
   5   1  12   27.84    2.78
  -5   1  12   25.32    2.71
   5  -1  12   29.01    3.03
  -5  -1  12   25.27    2.60
   1  -5 -14   23.94    4.02
  -1  -5 -14   22.96    2.62
   5  -1 -14   24.48    2.78
   5   1 -14   25.39    2.87
   1   5 -14   26.94    3.02
  -1  -5 -14   25.30    2.87
   1  -5 -14   26.04    3.23
   5  -1 -14   22.45    2.54
   1   5  14   23.24    2.77
  -1   5  14   26.04    3.04
   5   1  14   21.37    2.61
  -5   1  14   22.97    2.83
   5  -1  14   27.73    3.21
  -5  -1  14   23.15    2.74
   5   2  -1  217.01    4.99
   5   2   1  218.66    4.94
   2   5  -1  219.77    5.02
   2   5   1  228.97    5.20
  -2   5  -1  227.78    5.15
  -2   5   1  218.16    4.95
  -5   2  -1  224.19    5.06
  -5   2   1  223.29    5.08
   5  -2  -1  223.97    5.19
   5  -2   1  230.46    5.29
   5   2  -1  226.17    5.23
   5   2   1  220.85    5.12
   2   5  -1  214.55    4.88
   2   5   1  206.22    4.80
   2   5   1  225.25    5.07
  -2   5   1  216.12    4.84
   5   2   1  218.95    4.92
  -5   2   1  221.04    4.96
   5   2  -3  156.31    3.78
   2   5  -3  158.15    3.71
  -2   5  -3  160.68    3.67
   5   2   3  156.36    3.52
   2   5   3  159.15    3.65
  -5   2  -3  155.57    3.48
  -2   5   3  152.68    3.55
  -5   2   3  164.31    3.90
   5  -2  -3  156.87    3.84
   5   2  -3  162.08    3.83
   5  -2   3  159.95    3.66
   2   5  -3  157.21    3.61
   5   2   3  152.03    3.52
   2   5   3  156.94    3.60
  -2   5   3  153.99    3.58
   5   2   3  156.24    3.59
  -5   2   3  162.88    3.82
   5  -2   3  163.19    4.02
   5   2  -5   85.76    2.93
   2   5  -5   86.29    2.83
  -2   5  -5   87.81    2.75
  -5   2  -5   86.64    2.60
   2   5   5   84.20    2.64
  -2   5   5   90.91    2.91
   5   2   5   88.72    2.71
  -5   2   5   86.63    2.90
   5  -2  -5   91.45    3.01
   5   2  -5   86.95    3.16
   2   5  -5   86.29    2.71
   5  -2   5   85.27    2.61
   5   2   5   86.79    2.72
   2   5   5   85.57    2.74
  -2   5   5   89.28    2.91
   5   2   5   84.51    2.74
  -5   2   5   88.73    2.90
   5  -2   5   89.22    2.97
  -5  -2   5   91.33    3.12
   5   2  -7   69.92    2.90
   2   5  -7   71.47    2.88
  -2   5  -7   69.65    2.71
  -5   2  -7   70.80    2.67
   2   5   7   70.45    2.79
  -2   5   7   69.83    2.92
   5   2   7   73.24    2.90
   5  -2  -7   70.83    2.95
   5   2  -7   71.49    2.85
   2   5  -7   68.93    2.68
   2   5   7   74.04    3.07
  -2   5   7   68.99    2.82
   5   2   7   68.57    2.95
  -5   2   7   73.81    3.19
   5  -2   7   69.03    3.12
  -5  -2   7   73.12    3.45
  -5  -2  -9   60.48    3.72
   5   2  -9   64.04    4.24
   2   5  -9   63.14    4.08
  -5   2  -9   63.09    3.82
  -2   5  -9   68.00    4.30
   2   5   9   63.72    3.99
  -2   5   9   62.06    3.89
   5  -2  -9   48.66    3.24
   5   2  -9   63.81    3.98
   2   5  -9   58.62    3.57
   2   5   9   64.53    4.17
  -2   5   9   60.30    3.83
   5   2   9   56.16    3.61
  -5   2   9   63.28    4.22
   5  -2   9   67.76    4.38
  -5  -2   9   60.99    4.14
   5  -2 -11   43.86    3.23
   5   2 -11   49.78    3.68
   2   5 -11   39.78    2.92
  -2   5 -11   47.94    3.37
   2   5  11   43.70    3.13
  -2   5  11   38.44    2.84
   2  -5 -11   46.15    3.44
   5  -2 -11   45.56    3.32
   5   2 -11   44.94    3.26
   2   5  11   47.46    3.53
  -2   5  11   44.30    3.42
   5   2  11   47.08    3.57
  -5   2  11   47.64    3.56
   5  -2  11   46.93    3.55
  -5  -2  11   47.24    3.58
   5  -2 -13   41.94    1.55
   5   2 -13   37.42    1.40
   2   5 -13   35.53    1.08
   2  -5 -13   38.24    1.13
   5  -2 -13   34.74    1.12
   2   5  13   35.38    1.52
  -2   5  13   35.65    1.41
   5   2  13   40.58    1.64
  -5   2  13   34.13    1.58
   5  -2  13   38.88    1.91
  -5  -2  13   37.37    1.62
   2  -5 -15   22.23    3.08
   5  -2 -15   23.41    3.64
   5   2 -15   19.53    2.77
   2   5 -15   20.58    2.81
   2  -5 -15   17.40    2.47
   2   5  15   24.19    3.44
  -2   5  15   22.16    3.32
   5   2  15   20.76    3.12
  -5   2  15   16.37    2.54
   5  -2  15   22.64    3.27
  -5  -2  15   22.33    3.19
   5   3   0    1.16    0.29
   3   5   0    1.49    0.38
  -3   5   0    1.76    0.63
  -5   3   0    1.62    0.56
   5  -3   0    1.74    0.37
   5   3   0    1.51    0.62
   3   5   0    1.49    0.36
  -3   5   0    1.28    0.10
  -5   3   0    1.51    0.07
   5   3  -2  601.07   13.71
   3   5  -2  596.91   13.49
   5   3   2  601.35   13.43
   3   5   2  577.14   12.99
  -3   5  -2  587.98   13.15
  -5   3  -2  599.62   13.34
  -3   5   2  581.61   13.16
  -5   3   2  583.18   13.08
   5  -3  -2  603.59   13.85
   5  -3   2  619.53   13.93
   5   3  -2  562.07   12.70
   3   5  -2  615.11   13.89
   5   3   2  613.98   13.82
   3   5   2  616.25   13.87
   3   5   2  583.50   13.04
  -3   5   2  605.01   13.63
   5   3   2  600.86   13.39
  -5   3   2  617.81   13.81
   5   3  -4   76.71    2.55
   3   5  -4   79.02    2.62
  -3   5  -4   79.52    2.47
  -5   3  -4   81.44    2.46
   3   5   4   79.12    2.47
   5   3   4   79.59    2.43
  -3   5   4   74.59    2.48
  -5   3   4   77.58    2.62
   5  -3  -4   76.33    2.59
   3  -5   4   81.57    2.46
   5   3  -4   75.33    2.43
   3   5  -4   80.70    2.54
   5  -3   4   79.13    2.41
   5   3   4   78.26    2.48
   3   5   4   81.94    2.62
  -3   5   4   82.24    2.61
   5   3   4   77.20    2.47
  -5   3   4   78.72    2.54
   5   3  -6  441.68   13.09
   3   5  -6  437.46   13.14
  -3   5  -6  439.01   12.90
  -5   3  -6  432.09   12.58
   3   5   6  438.96   12.86
   5   3   6  457.18   13.36
  -3   5   6  435.97   12.97
  -5   3   6  413.24   12.22
   5  -3  -6  426.65   12.66
   5   3  -6  414.34   12.18
   3   5  -6  464.57   13.73
   3   5   6  459.73   13.53
  -3   5   6  432.62   12.76
   5   3   6  438.58   13.06
  -5   3   6  443.44   13.16
   5  -3   6  430.70   12.86
   5   3  -8    8.71    2.49
   3   5  -8    6.45    1.90
  -3   5  -8    8.93    1.09
  -5   3  -8    7.75    0.65
   3   5   8    8.33    0.78
  -3   5   8    8.06    1.00
   5   3   8    8.01    0.71
  -5   3   8    8.26    0.87
   5  -3  -8    8.86    2.90
   5   3  -8    8.50    1.16
   3   5  -8    7.58    1.77
   3   5   8    8.89    0.92
  -3   5   8   10.31    1.28
   5   3   8    7.38    2.45
  -5   3   8    7.85    3.51
   5  -3   8   11.15    1.39
  -5  -3   8    9.00    3.68
   5   3 -10  156.48    9.26
   3   5 -10  151.37    8.86
  -3   5 -10  163.00    9.45
   3   5  10  155.87    9.12
  -3   5  10  150.34    8.85
   3  -5 -10  162.76    9.69
   5  -3 -10  166.91    9.81
   5   3 -10  159.48    9.32
   3   5 -10  164.48    9.53
   3   5  10  159.89    9.43
  -3   5  10  155.85    9.30
   5   3  10  151.90    9.11
  -5   3  10  160.96    9.53
   5  -3  10  165.42    9.83
  -5  -3  10  158.82    9.48
   5  -3 -12   10.71    1.24
   5   3 -12   12.40    1.36
   3   5 -12    9.38    1.92
   3  -5 -12   10.56    1.18
   5  -3 -12   10.69    3.46
   5   3 -12   11.43    2.18
   3   5  12   14.23    4.00
  -3   5  12    7.74    3.99
   5   3  12   12.74    1.47
  -5   3  12   10.84    3.45
   5  -3  12   12.00    1.49
  -5  -3  12   11.94    1.48
   3  -5 -14   70.33    1.78
   5  -3 -14   78.93    2.05
   5   3 -14   70.34    2.90
   3   5 -14   74.11    1.89
   3  -5 -14   75.88    2.09
   5  -3 -14   78.11    2.50
   3   5  14   71.99    2.39
  -3   5  14   84.31    2.19
   5   3  14   73.15    2.02
  -5   3  14   72.12    2.02
   5  -3  14   81.10    2.18
  -5  -3  14   74.80    2.00
   5   4  -1   40.59    1.14
   4   5  -1   44.16    1.20
   5   4   1   46.20    1.16
   4   5   1   40.75    1.04
  -4   5  -1   44.18    1.12
  -5   4  -1   45.32    1.13
  -4   5   1   42.95    1.10
  -5   4   1   41.43    1.14
   4  -5  -1   40.17    1.22
   4  -5   1   47.85    1.51
   5  -4  -1   44.12    1.96
   5  -4   1   40.44    1.11
   5   4  -1   41.78    1.21
   4   5  -1   43.64    1.17
   5   4   1   44.12    1.19
   4   5   1   39.82    1.16
   4   5   1   42.36    1.05
   5   4   1   45.37    1.07
  -4   5   1   42.66    1.01
  -5   4   1   41.58    1.01
   5   4  -3  148.90    4.65
   4   5  -3  152.31    4.81
  -4   5  -3  142.10    4.34
   5   4   3  144.35    4.41
   4   5   3  149.59    4.53
  -5   4  -3  144.79    4.38
  -4   5   3  133.87    4.16
  -5   4   3  139.83    4.34
   5  -4  -3  150.57    4.78
   4  -5   3  155.65    4.72
   5  -4   3  147.13    4.49
   4   5  -3  152.06    4.71
   5   4   3  150.39    4.63
   4   5   3  149.14    4.67
   4   5   3  138.33    4.20
   5   4   3  147.93    4.49
  -4   5   3  151.60    4.63
  -5   4   3  145.95    4.49
   5   4  -5   34.86    1.35
   4   5  -5   38.41    1.57
  -4   5  -5   36.82    1.16
  -5   4  -5   37.21    1.16
   4   5   5   37.48    1.23
   5   4   5   43.32    1.38
  -4   5   5   34.46    1.26
  -5   4   5   37.35    1.56
   4  -5  -5   34.14    1.58
   5  -4  -5   37.99    1.46
   5   4  -5   37.34    1.29
   4   5  -5   42.45    1.44
   4   5   5   38.03    1.38
   5   4   5   38.47    1.37
  -4   5   5   36.91    1.45
  -5   4   5   37.64    1.38
   5   4  -7   39.16    1.88
   4   5  -7   42.00    1.86
  -4   5  -7   38.89    1.57
  -5   4  -7   41.50    1.61
   4   5   7   41.48    1.72
   5   4   7   43.07    1.73
  -4   5   7   36.94    1.74
  -5   4   7   40.44    1.81
   4  -5  -7   38.43    1.92
   5  -4  -7   39.16    1.96
   5   4  -7   39.27    1.69
   4   5  -7   42.49    1.84
   4   5   7   42.27    1.83
   5   4   7   38.66    1.73
  -4   5   7   45.47    2.23
  -5   4   7   38.83    2.43
   5  -4   7   42.79    2.16
   5   4  -9   19.26    0.99
   4   5  -9   23.18    1.00
  -4   5  -9   20.04    0.56
  -5   4  -9   21.44    0.53
   4   5   9   17.62    0.82
  -4   5   9   23.15    2.08
  -5   4   9   19.31    0.93
   4  -5  -9   19.85    1.04
   5  -4  -9   20.23    1.82
   5   4  -9   18.37    0.72
   4   5  -9   21.54    0.79
   4   5   9   19.65    1.03
   5   4   9   20.74    1.47
  -4   5   9   23.18    1.12
  -5   4   9   18.23    1.03
   5  -4   9   23.36    1.58
   5   4 -11   29.56    2.24
   4   5 -11   32.17    2.39
  -4   5  11   32.99    2.56
   4  -5 -11   32.46    2.56
   5  -4 -11   33.29    2.62
   5   4 -11   31.08    2.40
   4   5  11   34.36    2.69
   5   4  11   31.63    2.52
  -4   5  11   37.99    3.28
  -5   4  11   34.51    2.73
   5  -4  11   36.46    2.89
   5  -4 -13   13.43    5.75
   5   4 -13   15.70    6.72
   4   5 -13   14.90    6.38
   4  -5 -13   17.95    7.65
   5  -4 -13   16.86    7.19
   4   5  13   15.04    6.46
   5   4  13   20.52    8.81
  -4   5  13   17.57    8.44
  -5   4  13   17.75    7.60
   5  -4  13   17.00    7.31
   4  -5 -15    7.76    4.70
   5  -4 -15    8.89    5.47
   5   4 -15    9.80    5.51
   4   5 -15    9.34    5.89
   4  -5 -15    8.14    5.06
   5  -4 -15   10.19    6.19
   4   5  15    9.27    5.91
   5   4  15   10.46    6.39
  -4   5  15    9.01    5.62
  -5   4  15    8.13    4.92
   5  -4  15    7.52    5.06
   5   5   0  147.56    3.51
  -5   5   0  142.48    3.34
   5  -5   0  151.93    3.71
   5   5   0  142.64    3.38
   5   5   0  162.68    3.72
  -5   5   0  143.48    3.26
   5   5  -2  703.02   20.92
   5   5   2  670.49   20.00
  -5   5  -2  675.89   20.15
  -5   5   2  703.98   20.53
   5  -5  -2  739.23   21.72
   5  -5   2  700.50   20.52
   5   5  -2  661.96   19.93
   5   5   2  680.66   20.50
   5   5   2  685.41   20.56
  -5   5   2  686.29   20.46
   5   5  -4   -0.13    0.57
  -5   5  -4    0.19    0.20
   5   5   4    0.64    0.27
  -5   5   4    0.40    0.58
   5  -5  -4    0.52    0.49
   5  -5   4    0.30    0.09
   5   5  -4    0.38    0.35
   5   5   4    0.17    0.59
   5   5   4    0.84    0.27
  -5   5   4   -0.33    0.56
   5   5  -6  353.24   13.33
  -5   5  -6  350.83   13.06
   5   5   6  354.90   13.10
  -5   5   6  344.60   13.21
   5  -5  -6  369.51   14.00
   5   5  -6  348.97   12.96
   5   5   6  355.33   13.19
  -5   5   6  350.68   13.24
   5   5  -8   63.58    4.00
  -5   5  -8   58.98    3.56
   5   5   8   59.93    3.70
  -5   5   8   58.27    3.68
   5  -5  -8   57.60    3.82
   5   5  -8   60.74    3.87
   5   5   8   65.23    4.10
  -5   5   8   63.80    4.09
   5   5 -10  251.63   17.05
  -5   5  10  247.92   16.69
   5  -5 -10  257.62   17.42
   5   5 -10  260.14   17.65
   5   5  10  267.24   18.21
  -5   5  10  263.84   18.44
   5   5 -12    0.82    0.47
   5  -5 -12    1.31    0.43
   5   5  12    0.78    0.61
  -5   5  12   -0.32    0.86
   5  -5 -14  107.22   13.98
   5   5 -14  104.55   45.34
   5  -5 -14  105.33   13.73
   5   5  14  103.74   44.92
  -5   5  14  103.33   44.75
   6   0  -2   16.64    0.91
   6   0   2   15.44    0.42
   0   6  -2   15.16    0.55
   0   6   2   15.88    0.54
   6   0  -2   15.49    0.71
   6   0   2   15.38    0.88
   6   0   2   16.53    0.55
   6   0  -4  406.82   12.35
   0   6  -4  398.44   11.96
   0   6   4  402.78   12.17
   6   0  -4  416.43   12.59
   6   0   4  405.68   12.24
   0   6  -4  406.41   12.18
   0   6   4  405.35   12.20
   6   0   4  401.34   12.12
  -6   0   4  409.46   12.44
   6   0  -6    1.27    1.12
   0   6  -6    1.19    0.35
   0   6   6    1.52    0.55
   6   0  -6    0.35    0.80
   0   6  -6    0.61    0.16
   0   6   6    0.80    0.77
   6   0   6    0.58    0.39
  -6   0   6    0.24    1.07
   6   0  -8   53.18    3.99
  -6   0  -8   49.52    3.54
   0   6  -8   50.04    3.68
   0   6   8   48.03    3.57
   6   0  -8   45.58    3.47
   0   6  -8   46.38    3.29
   0   6   8   45.30    3.38
   6   0   8   47.99    3.61
  -6   0   8   48.23    3.68
   6   0 -10    3.58    1.19
   0   6 -10    4.46    0.91
   0   6  10    5.88    2.51
   6   0 -10    4.96    1.44
   0   6  10    3.92    1.50
   6   0  10    4.27    1.40
  -6   0  10    4.08    1.14
   6   0 -12   90.45    8.00
   0   6 -12   96.38    8.43
   0   6  12   91.75    8.08
   6   0 -12   92.47    8.13
   0   6  12  100.31    8.90
   6   0  12   97.86    8.73
  -6   0  12  104.22    9.49
   6   0 -14    0.36    0.39
   0   6 -14   -0.05    0.38
   0  -6 -14    0.16    0.40
   6   0 -14    0.85    0.59
   0   6  14    0.25    1.21
   6   0  14   -0.04    0.63
  -6   0  14   -0.42    1.21
   6   1  -1   90.04    2.29
   6   1   1   88.55    2.10
   1   6  -1   94.54    2.25
  -1   6  -1   90.26    2.13
   1   6   1   90.50    2.14
  -1   6   1   89.07    2.12
   6  -1  -1   85.99    2.17
   6  -1   1   90.50    2.21
   6   1  -1   89.59    2.28
   6   1   1   84.45    2.08
   1   6  -1   87.91    2.10
   1   6   1   90.58    2.10
  -1   6   1   91.12    2.10
  -6   1  -1   86.51    1.92
   6   1   1   89.67    2.04
  -6   1   1   89.62    2.07
   6   1  -3  179.43    5.66
   1   6  -3  171.73    5.26
  -1   6  -3  176.60    5.36
   6   1   3  179.30    4.01
   1   6   3  171.77    5.21
  -1   6   3  165.22    5.20
   6  -1  -3  165.41    5.14
   6   1  -3  173.31    5.45
   6  -1   3  170.88    5.21
   6   1   3  168.74    5.19
   1   6  -3  172.02    5.22
   1   6   3  168.26    5.09
  -1   6   3  183.83    4.22
   6   1   3  173.29    5.34
  -6   1   3  169.48    5.23
   6  -1   3  171.39    5.24
  -6  -1  -5  162.32    4.85
   6   1  -5  167.33    5.30
   1   6  -5  163.33    5.09
  -1   6  -5  162.04    4.97
   1   6   5  157.77    4.85
  -1   6   5  156.58    4.92
   6  -1  -5  167.99    5.29
   6   1  -5  162.68    5.13
   1   6  -5  164.29    5.00
   6  -1   5  164.07    4.99
   6   1   5  165.13    5.22
   1   6   5  160.00    4.96
  -1   6   5  162.25    5.13
   6   1   5  163.78    5.10
  -6   1   5  160.04    5.09
   6  -1   5  167.82    5.28
  -6  -1   5  170.85    5.40
   6  -1  -7   60.23    2.61
   6   1  -7   72.61    3.05
  -6  -1  -7   70.86    2.67
   1   6  -7   66.93    2.78
  -1   6  -7   74.70    2.97
   1   6   7   72.79    2.96
  -1   6   7   74.33    3.16
   6  -1  -7   69.29    2.81
   6   1  -7   70.04    2.81
   1   6  -7   66.28    2.52
   1   6   7   72.14    2.97
  -1   6   7   74.64    3.05
   6   1   7   73.26    3.06
   6  -1   7   68.92    3.38
  -6   1   7   67.32    2.85
  -6  -1   7   69.71    3.11
   6  -1  -9   33.54    1.29
   6   1  -9   34.40    1.26
  -1   6  -9   34.20    0.93
   1   6   9   36.41    1.21
  -1   6   9   32.11    1.21
   6  -1  -9   33.00    2.53
   6   1  -9   35.66    1.05
   1   6  -9   31.61    0.62
   1   6   9   34.38    1.52
  -1   6   9   33.37    1.25
   6   1   9   32.62    1.29
   6  -1   9   32.24    3.04
  -6   1   9   33.30    1.43
  -6  -1   9   31.88    2.66
   6  -1 -11   41.87    3.73
   6   1 -11   38.68    3.03
   1   6 -11   36.84    2.66
  -1   6 -11   40.40    2.88
   1   6  11   30.74    2.95
  -1   6  11   35.56    2.67
   6  -1 -11   37.67    2.83
   6   1 -11   36.93    2.65
   1   6  11   36.47    2.76
  -1   6  11   40.34    3.19
   6   1  11   36.52    2.98
  -6   1  11   40.83    3.28
   6  -1  11   34.26    2.70
  -6  -1  11   41.33    3.25
   6  -1 -13   43.55   18.87
   6   1 -13   41.52   17.65
   1   6 -13   38.24   16.23
  -1   6 -13   42.30   17.94
   1   6  13   38.09   16.18
  -1   6  13   42.27   17.96
   1  -6 -13   42.49   18.06
   6  -1 -13   39.40   16.72
   6   1 -13   39.07   16.59
   1   6  13   41.15   17.50
  -1   6  13   39.52   16.80
   6   1  13   40.74   17.32
  -6   1  13   46.64   20.20
   6  -1  13   36.27   15.44
  -6  -1  13   41.19   17.51
   1  -6 -15   18.99   10.64
   6  -1 -15   15.85    8.89
   6   1 -15   19.34   10.83
   1   6 -15   18.58   10.40
   1  -6 -15   19.55   10.95
   1   6  15   21.37   12.01
  -1   6  15   21.44   13.24
   6   1  15   19.68   12.10
  -6   1  15   17.79   10.76
   6  -1  15   19.02   10.69
  -6  -1  15   22.48   12.66
   6   2   0   24.98    1.26
   2   6   0   26.98    0.80
  -2   6   0   25.95    1.00
  -6   2   0   24.85    0.74
   6  -2   0   27.01    0.89
   6   2   0   25.22    0.88
   2   6   0   26.40    0.81
  -2   6   0   26.60    0.68
   6   2   0   24.36    0.59
   6   2  -2  102.62    2.58
   6   2   2  101.94    2.35
   2   6  -2   95.67    2.33
  -2   6  -2   98.10    2.30
   2   6   2  101.98    2.42
  -2   6   2   95.44    2.29
  -6   2  -2   93.31    2.15
  -6   2   2   99.13    2.55
   6  -2  -2   96.70    2.53
   6  -2   2   97.45    2.33
   6   2  -2   93.17    2.39
   6   2   2   97.48    2.36
   2   6  -2  100.08    2.38
   2   6   2   99.31    2.31
  -2   6   2   96.58    2.28
   6   2   2   99.52    2.30
  -6   2   2   99.99    2.35
   6   2  -4  127.52    4.37
   2   6  -4  128.01    4.03
  -2   6  -4  133.22    4.08
   2   6   4  130.38    4.00
   6   2   4  136.19    4.09
  -2   6   4  130.41    4.07
  -6   2   4  129.87    4.14
   6  -2  -4  133.78    4.97
   6   2  -4  127.14    4.14
   6  -2   4  127.48    3.89
   2   6  -4  129.52    4.04
   6   2   4  132.42    4.10
   2   6   4  126.02    3.92
  -2   6   4  129.19    4.01
   6   2   4  129.99    4.02
  -6   2   4  125.70    4.07
   6  -2   4  127.56    4.02
   6   2  -6   84.08    2.94
   2   6  -6   79.49    2.55
  -2   6  -6   77.34    2.42
  -6   2  -6   75.70    2.22
   2   6   6   78.42    2.48
  -2   6   6   75.68    2.45
   6   2   6   81.32    2.45
  -6   2   6   77.59    2.59
   6  -2  -6   75.87    2.67
   6   2  -6   78.20    2.67
   2   6  -6   79.00    2.47
   6  -2   6   84.09    2.56
   2   6   6   83.13    2.69
  -2   6   6   78.33    2.55
   6   2   6   76.17    2.50
  -6   2   6   84.77    3.43
   6  -2   6   81.59    2.83
  -6  -2   6   78.30    2.82
   6   2  -8   77.50    4.84
   2   6  -8   78.57    4.87
  -2   6  -8   79.41    4.81
  -6   2  -8   77.21    4.60
   2   6   8   79.48    4.89
  -2   6   8   85.93    5.29
   6  -2  -8   79.27    5.05
   6   2  -8   75.96    4.68
   2   6  -8   79.29    4.77
   2   6   8   79.90    4.99
  -2   6   8   77.09    4.78
   6   2   8   76.63    4.78
  -6   2   8   81.08    5.09
   6  -2   8   84.61    5.37
  -6  -2   8   79.66    5.13
   6  -2 -10   28.46    3.19
   6   2 -10   25.80    2.06
   2   6 -10   23.49    1.78
  -2   6 -10   26.92    1.93
   2   6  10   22.59    1.72
  -2   6  10   24.79    1.89
   6  -2 -10   26.13    2.02
   6   2 -10   29.71    2.19
   2   6  10   27.05    2.13
  -2   6  10   25.52    2.06
   6   2  10   24.93    2.03
  -6   2  10   23.97    1.95
   6  -2  10   31.97    2.68
  -6  -2  10   26.32    2.19
   6  -2 -12   55.54    4.10
   6   2 -12   48.41    3.58
   2   6 -12   58.02    4.19
  -2   6 -12   55.42    3.96
   2   6  12   58.75    4.25
  -2   6  12   49.23    4.01
   2  -6 -12   58.23    4.35
   6  -2 -12   57.00    4.20
   6   2 -12   57.72    4.20
   2   6  12   54.36    4.07
  -2   6  12   54.49    4.19
   6   2  12   56.32    4.64
  -6   2  12   58.96    4.49
   6  -2  12   62.39    4.76
  -6  -2  12   55.18    4.18
   6  -2 -14   24.69    1.27
   6   2 -14   26.69    1.14
   2   6 -14   27.15    2.64
   2  -6 -14   28.32    1.32
   6  -2 -14   25.02    0.92
   2   6  14   24.53    1.29
  -2   6  14   22.63    4.97
   6   2  14   24.75    1.55
  -6   2  14   27.92    1.51
   6  -2  14   27.90    1.57
  -6  -2  14   26.94    1.48
   6   3  -1  270.38    6.19
   6   3   1  267.56    6.17
   3   6  -1  275.33    6.29
   3   6   1  257.28    5.98
  -3   6  -1  280.46    6.34
  -3   6   1  277.81    6.43
  -6   3  -1  279.95    6.40
  -6   3   1  274.80    6.38
   6  -3  -1  281.96    6.53
   6  -3   1  269.60    6.36
   6   3  -1  277.18    6.35
   6   3   1  274.78    6.46
   3   6  -1  272.59    6.24
   3   6   1  267.51    6.23
   3   6   1  263.73    5.94
  -3   6   1  270.67    6.07
   6   3   1  269.51    6.02
  -6   3   1  273.34    6.11
   6   3  -3  272.27    8.49
   3   6  -3  279.40    8.61
  -3   6  -3  274.19    8.25
   6   3   3  288.74    8.65
   3   6   3  275.50    8.30
  -3   6   3  277.28    8.41
  -6   3  -3  275.77    8.23
  -6   3   3  280.73    8.65
   6  -3  -3  274.35    8.45
   6  -3   3  275.18    8.33
   6   3  -3  279.71    8.51
   3   6  -3  274.51    8.42
   6   3   3  283.48    8.69
   3   6   3  263.64    7.97
  -3   6   3  281.92    8.48
   6   3   3  275.40    8.30
  -6   3   3  276.25    8.35
   6   3  -5  126.75    4.00
   3   6  -5  122.60    3.89
  -3   6  -5  125.21    3.78
  -6   3  -5  125.28    3.66
   3   6   5  124.52    3.77
   6   3   5  125.61    3.71
  -3   6   5  121.44    3.86
  -6   3   5  125.81    4.11
   6  -3  -5  125.62    3.97
   6   3  -5  131.90    4.25
   3   6  -5  124.93    3.77
   6  -3   5  124.98    3.70
   6   3   5  119.29    3.69
   3   6   5  121.49    3.73
  -3   6   5  122.63    3.74
   6   3   5  123.44    3.89
  -6   3   5  126.33    4.06
   6  -3   5  123.66    3.94
   6   3  -7  125.82    5.02
   3   6  -7  127.06    4.91
  -3   6  -7  121.13    4.59
  -6   3  -7  127.57    4.73
   3   6   7  126.84    4.87
  -3   6   7  128.78    4.97
   6   3   7  125.97    4.72
  -6   3   7  118.44    4.66
   6  -3  -7  129.30    5.08
   6   3  -7  121.13    4.71
   3   6  -7  129.62    4.89
   3   6   7  130.60    5.12
  -3   6   7  124.14    4.86
   6   3   7  130.43    5.11
  -6   3   7  123.30    4.86
   6  -3   7  136.02    5.47
   6   3  -9   83.18    1.62
   3   6  -9   91.34    1.46
  -3   6   9   90.34    1.49
   6  -3  -9   88.20    1.61
   6   3  -9   83.52    1.39
   3   6   9   83.23    1.67
  -3   6   9   91.86    1.76
   6   3   9   92.76    2.25
  -6   3   9   86.26    1.86
   6  -3   9   89.15    2.18
  -6  -3   9   93.91    2.24
   6  -3 -11   45.28    4.14
   6   3 -11   44.44    4.03
   3   6 -11   47.14    4.74
  -3   6 -11   44.40    3.93
   3   6  11   42.07    3.75
  -3   6  11   43.74    3.96
   3  -6 -11   48.80    4.43
   6  -3 -11   44.69    4.10
   6   3 -11   42.51    3.79
   3   6  11   44.79    4.20
  -3   6  11   45.51    4.17
   6   3  11   45.67    4.15
  -6   3  11   46.05    4.27
   6  -3  11   43.28    4.01
  -6  -3  11   47.76    4.42
   6  -3 -13   36.49   15.50
   6   3 -13   42.63   18.12
   3   6 -13   39.61   16.82
   3  -6 -13   41.50   17.80
   6  -3 -13   42.88   18.20
   3   6  13   40.55   17.25
  -3   6  13   36.25   15.42
   6   3  13   43.72   18.58
  -6   3  13   38.29   16.30
   6  -3  13   41.45   17.64
  -6  -3  13   40.97   17.44
   3  -6 -15   23.60   13.25
   6  -3 -15   24.07   13.48
   6   3 -15   22.00   12.31
   3   6 -15   18.95   10.61
   3  -6 -15   25.86   14.47
   6  -3 -15   24.41   13.66
   3   6  15   19.28   11.87
  -3   6  15   25.53   14.31
   6   3  15   24.48   13.73
  -6   3  15   25.24   14.16
   6  -3  15   30.29   17.00
   6   4   0    0.60    0.17
   4   6   0    0.29    0.22
  -4   6   0    0.42    0.23
  -6   4   0    0.10    0.31
   6   4   0   -0.01    0.46
   4   6   0    0.65    0.43
   4   6   0   -0.06    0.30
   6   4   0    0.47    0.15
  -4   6   0    0.35    0.09
  -6   4   0    0.41    0.15
   6   4  -2  461.73   14.06
   4   6  -2  443.68   13.44
   6   4   2  455.86   13.64
   4   6   2  446.98   13.52
  -4   6  -2  457.30   13.72
  -4   6   2  460.93   13.93
  -6   4  -2  448.96   13.45
  -6   4   2  459.21   13.99
   4  -6   2  475.80   14.33
   6  -4  -2  439.33   13.39
   6  -4   2  454.80   13.76
   6   4  -2  449.31   13.79
   4   6  -2  458.07   13.83
   6   4   2  460.70   14.10
   4   6   2  461.92   14.01
   4   6   2  437.22   13.10
   6   4   2  445.23   13.46
  -4   6   2  426.78   12.77
  -6   4   2  463.04   13.84
   6   4  -4    1.13    0.76
   4   6  -4    1.22    0.35
  -4   6  -4    1.02    0.41
   6   4   4    1.21    0.25
   4   6   4    1.29    0.42
  -6   4  -4    0.98    0.41
  -4   6   4    2.21    0.62
  -6   4   4    0.65    0.45
   6  -4  -4    1.69    0.60
   4  -6   4    1.48    0.27
   6   4  -4    0.51    0.43
   6  -4   4    0.42    0.47
   4   6  -4    1.59    0.63
   6   4   4    1.33    0.35
   4   6   4    1.36    0.35
  -4   6   4    1.83    0.59
   6   4   4    1.33    0.46
  -6   4   4    1.07    0.30
   6   4  -6  277.13   10.45
   4   6  -6  287.59   11.05
  -4   6  -6  283.95   10.52
  -6   4  -6  283.89   10.58
   4   6   6  283.72   10.52
   6   4   6  282.24   10.48
  -4   6   6  281.97   10.76
  -6   4   6  279.95   10.68
   6  -4  -6  280.85   10.79
   6   4  -6  272.32   10.16
   4   6  -6  274.27   10.41
   4   6   6  285.77   10.72
  -4   6   6  283.52   10.61
   6   4   6  281.08   10.52
  -6   4   6  295.52   11.10
   6   4  -8   12.19    1.03
   4   6  -8   15.00    1.25
  -4   6  -8   15.06    1.06
  -6   4  -8   13.10    0.84
   4   6   8   14.30    1.10
  -4   6   8   14.96    1.31
  -6   4   8   15.20    3.16
   4  -6  -8   15.84    3.52
   6  -4  -8   11.80    1.28
   6   4  -8   15.56    1.22
   4   6  -8   16.57    2.18
   4   6   8   14.07    1.22
  -4   6   8   15.27    3.57
   6   4   8   12.57    1.15
  -6   4   8   12.85    1.18
   6  -4   8   13.21    1.57
   6   4 -10  148.71   10.10
   4   6 -10  153.28   10.36
  -4   6 -10  147.99    9.92
  -4   6  10  143.64    9.77
   4  -6 -10  143.37    9.76
   6  -4 -10  140.14    9.53
   6   4 -10  153.92   10.41
   4   6 -10  153.02   10.32
   4   6  10  154.67   10.57
  -4   6  10  145.83    9.91
   6   4  10  156.36   10.63
  -6   4  10  148.97   10.20
   6  -4  10  140.52    9.65
   6  -4 -12    1.85    0.73
   6   4 -12    1.04    0.55
   4   6 -12    1.83    0.65
  -4   6  12    0.57    0.83
   4  -6 -12    0.87    0.74
   6  -4 -12    0.33    0.99
   6   4 -12    0.73    0.38
   4   6  12    0.42    0.93
  -4   6  12    1.71    0.84
   6   4  12    2.80    1.32
  -6   4  12    0.73    0.37
   6  -4  12    0.48    0.80
   6  -4 -14   68.12   29.51
   6   4 -14   62.87   27.40
   4   6 -14   66.96   29.00
   4  -6 -14   77.60   33.61
   6  -4 -14   74.62   32.33
   4   6  14   62.32   27.00
  -4   6  14   76.36   33.13
   6   4  14   73.41   31.82
  -6   4  14   59.00   25.62
   6  -4  14   65.09   28.22
   6   5  -1  149.96    4.69
   5   6  -1  157.29    4.95
   6   5   1  156.04    4.85
   5   6   1  155.11    4.74
  -5   6  -1  149.60    4.60
  -6   5  -1  152.07    4.66
  -5   6   1  150.36    4.81
  -6   5   1  158.18    4.94
   5  -6  -1  153.22    5.28
   5  -6   1  153.19    4.81
   6  -5  -1  154.32    4.88
   6  -5   1  157.91    4.92
   6   5  -1  151.98    4.76
   5   6  -1  159.08    5.05
   6   5   1  155.80    4.83
   5   6   1  157.59    5.04
   5   6   1  156.31    4.72
   6   5   1  159.12    4.83
  -5   6   1  154.97    4.73
  -6   5   1  151.51    4.62
   6   5  -3   78.63    2.72
   5   6  -3   81.07    2.81
   6   5   3   81.85    2.53
   5   6   3   79.57    2.49
  -5   6  -3   79.76    2.48
  -6   5  -3   82.28    2.53
  -5   6   3   81.70    2.66
  -6   5   3   82.27    2.78
   5  -6  -3   79.71    2.75
   6  -5  -3   83.45    2.95
   5  -6   3   83.11    2.64
   6  -5   3   76.88    2.44
   6   5  -3   80.54    2.59
   5   6  -3   79.50    2.57
   6   5   3   78.02    2.57
   5   6   3   83.14    2.74
   5   6   3   80.53    2.51
   6   5   3   79.78    2.54
  -5   6   3   82.02    2.58
  -6   5   3   82.98    2.63
   6   5  -5  137.53    4.48
   5   6  -5  135.49    4.26
  -5   6  -5  136.21    4.05
  -6   5  -5  137.40    4.08
   6   5   5  132.29    3.98
   5   6   5  133.42    4.06
  -5   6   5  129.10    4.28
   5  -6  -5  129.69    5.12
   6  -5  -5  138.05    4.85
   6   5  -5  140.02    4.45
   5   6  -5  133.28    4.22
   6  -5   5  137.02    4.03
   5   6   5  138.11    4.23
   6   5   5  134.86    4.12
  -5   6   5  133.06    4.11
  -6   5   5  140.59    4.36
   6   5  -7   81.52    5.95
   5   6  -7   72.10    5.23
  -5   6  -7   75.92    5.38
  -6   5  -7   75.71    5.37
   5   6   7   77.81    5.57
   6   5   7   79.57    5.71
  -5   6   7   73.93    5.49
  -6   5   7   76.44    5.87
   5  -6  -7   81.14    5.96
   6  -5  -7   72.67    5.37
   6   5  -7   83.42    6.04
   5   6  -7   73.79    5.28
   5   6   7   80.10    5.80
   6   5   7   78.62    5.72
  -5   6   7   79.16    5.74
  -6   5   7   75.14    5.49
   6   5  -9  141.89    8.45
   5   6  -9  136.69    8.06
  -5   6  -9  141.65    8.21
  -5   6   9  136.33    8.20
  -6   5   9  133.46    8.15
   5  -6  -9  136.32    8.04
   6  -5  -9  132.57    7.83
   6   5  -9  140.94    8.27
   5   6  -9  148.79    8.66
   5   6   9  146.04    8.59
   6   5   9  135.66    8.02
  -5   6   9  139.44    8.25
  -6   5   9  129.71    7.68
   6   5 -11   46.09    4.16
   5   6 -11   45.19    4.16
  -5   6  11   44.30    4.10
   5  -6 -11   47.91    4.67
   6  -5 -11   46.58    4.29
   6   5 -11   44.85    3.99
   5   6  11   41.29    4.99
   6   5  11   44.99    4.14
  -5   6  11   44.76    4.18
  -6   5  11   40.99    3.84
   6  -5 -13   41.33    4.58
   6   5 -13   36.16    3.95
   5   6 -13   38.72    4.44
   5  -6 -13   32.43    3.62
   6  -5 -13   35.34    3.93
   5   6  13   35.44    4.02
   6   5  13   33.97    3.81
  -5   6  13   34.42    3.86
  -6   5  13   37.72    4.28
   6   6   0  227.38    7.21
  -6   6   0  229.08    6.97
   6  -6   0  217.38    6.77
   6   6   0  223.80    6.93
   6   6   0  212.33    6.38
  -6   6   0  225.18    6.73
   6   6  -2  106.62    3.40
   6   6   2  112.02    3.39
  -6   6  -2  112.27    3.52
  -6   6   2  113.16    3.48
   6  -6  -2  111.65    3.75
   6  -6   2  117.69    3.67
   6   6  -2  113.70    3.51
   6   6   2  108.89    3.40
   6   6   2  120.01    3.58
  -6   6   2  105.82    3.20
   6   6  -4   70.78    2.35
   6   6   4   73.34    2.26
  -6   6  -4   66.24    2.18
  -6   6   4   73.07    2.45
   6  -6  -4   70.12    3.19
   6  -6   4   68.92    2.17
   6   6  -4   72.65    2.55
   6   6   4   75.33    2.61
   6   6   4   64.73    2.07
  -6   6   4   68.06    2.16
   6   6  -6   65.01    4.81
  -6   6  -6   62.01    4.40
   6   6   6   61.70    4.41
  -6   6   6   63.23    4.83
   6  -6  -6   65.09    4.77
   6   6  -6   63.05    4.56
   6   6   6   65.62    4.77
  -6   6   6   57.55    4.57
   6   6  -8   68.32    1.47
  -6   6  -8   63.54    0.71
  -6   6   8   65.03    1.76
   6  -6  -8   67.28    2.08
   6   6  -8   72.23    1.43
   6   6   8   64.87    1.32
  -6   6   8   65.75    1.60
   6   6 -10   64.78    4.62
  -6   6  10   63.31    4.60
   6  -6 -10   67.19    4.93
   6   6 -10   62.45    4.34
   6   6  10   64.37    4.57
  -6   6  10   60.25    4.33
   6   6 -12   29.68    1.07
   6  -6 -12   27.79    2.38
   6   6  12   27.62    1.31
  -6   6  12   28.33    1.43
   6  -6 -14   18.15    2.62
   6   6 -14   11.08    3.51
   6  -6 -14   15.78    2.22
   6   6  14   13.91    2.46
  -6   6  14   13.15    3.08
   7   0  -1   16.10    0.69
   7   0   1   16.12    0.58
   0   7  -1   17.58    0.71
   0   7   1   15.56    0.54
   7   0  -1   15.74    0.70
   7   0   1   14.69    0.57
   0   7   1   15.87    0.47
   7   0   1   15.66    0.41
   7   0  -3   83.05    2.79
   7   0   3   87.59    2.62
   0   7  -3   84.76    2.67
   0   7   3   84.89    2.69
   7   0  -3   85.31    2.82
   7   0   3   88.82    2.82
   0   7   3   84.98    2.82
   7   0   3   87.80    2.76
  -7   0   3   86.18    2.82
   7   0  -5   29.22    1.28
   0   7  -5   28.84    1.06
   0   7   5   27.55    1.03
   7   0  -5   29.00    2.00
   7   0   5   27.26    0.97
   0   7  -5   31.19    1.01
   0   7   5   23.50    1.08
   7   0   5   27.91    1.29
  -7   0   5   29.04    1.31
   7   0  -7   13.22    3.18
   0   7  -7   12.78    1.27
   0   7   7   11.48    1.03
   7   0  -7   12.50    1.19
   0   7  -7   12.97    0.97
   0   7   7   13.42    1.15
   7   0   7   14.56    1.96
  -7   0   7   10.58    1.07
   7   0  -9    1.64    0.53
   0   7  -9    1.21    0.39
   0   7   9    0.19    0.35
   7   0  -9    2.78    0.66
   0   7   9    1.26    0.97
   7   0   9    0.16    1.10
  -7   0   9   -0.77    1.11
   7   0 -11   11.04    1.34
   0   7 -11    7.57    0.89
   0   7  11    9.33    1.22
   7   0 -11    9.74    1.16
   0   7  11    9.97    3.17
   7   0  11    9.16    1.20
  -7   0  11    9.59    4.01
   7   0 -13    9.09    4.35
   0   7 -13    8.84    4.04
   0   7  13    8.28    4.10
   7   0 -13    9.11    3.94
   0   7  13    9.80    4.52
   7   0  13    8.53    4.75
  -7   0  13    9.26    5.55
   7   0 -15    4.03    2.38
   0  -7 -15    4.59    3.06
   0   7  15    4.94    2.95
   7   0  15    3.49    2.38
  -7   0  15    3.16    2.27
   7   1   0  180.33    4.21
   1   7   0  174.82    4.05
  -1   7   0  174.85    4.07
   7  -1   0  181.99    4.29
   7   1   0  179.52    4.30
   1   7   0  198.67    4.51
  -1   7   0  180.00    4.08
   7   1   0  183.55    4.10
   7  -1   2    0.88    0.20
   7   1  -2    0.64    0.23
   7   1   2    1.48    0.27
   1   7  -2    1.61    0.45
  -1   7  -2    1.08    0.40
   1   7   2    1.44    0.42
  -1   7   2    1.96    0.62
   7  -1  -2    1.64    0.62
   7   1  -2    1.08    0.45
   7  -1   2    0.96    0.28
   7   1   2    1.36    0.35
   1   7  -2    2.02    0.59
   1   7   2    0.96    0.22
  -1   7   2    1.22    0.32
   7   1   2    0.97    0.40
   7  -1   2    0.65    0.31
  -7   1   2    0.37    0.52
   7   1  -4  543.86   16.69
   1   7  -4  494.62   14.89
  -1   7  -4  498.97   15.15
   1   7   4  493.28   14.82
  -1   7   4  505.23   15.21
   7  -1  -4  526.35   16.19
   7   1  -4  524.06   16.12
   7  -1   4  502.02   15.05
   7   1   4  509.80   15.39
   1   7  -4  512.04   15.40
   1   7   4  509.99   15.35
  -1   7   4  516.64   15.54
   7   1   4  512.67   15.46
   7  -1   4  503.81   15.20
  -7   1   4  524.89   16.08
   7  -1  -6    0.69    0.55
   7   1  -6    1.63    0.47
   1   7  -6    0.63    0.40
  -1   7  -6    0.80    0.33
   1   7   6    1.52    0.48
  -1   7   6   -0.97    0.75
   7   1  -6    1.62    0.40
   1   7  -6    0.45    0.20
   7  -1   6    1.34    0.37
   7   1   6    0.62    0.23
   1   7   6    0.54    0.52
  -1   7   6    1.02    0.58
   7   1   6    2.23    1.10
   7  -1   6    0.95    0.56
  -7   1   6    0.26    0.66
  -7  -1   6    0.62    0.76
   7   1  -8  153.21    2.63
   1   7  -8  141.55    8.59
  -1   7  -8  136.65    8.21
   1   7   8  147.55    8.91
  -1   7   8  150.47    9.08
   7  -1  -8  155.29    4.22
   7   1  -8  138.01    8.43
   1   7  -8  144.81    8.63
   1   7   8  146.40    8.89
  -1   7   8  149.57    9.07
   7   1   8  143.96    8.90
   7  -1   8  151.06    9.27
  -7   1   8  142.64    8.86
  -7  -1   8  148.26    9.07
   7  -1 -10   -0.65    1.09
   7   1 -10    1.17    0.74
   1   7 -10    1.16    0.56
  -1   7 -10    0.85    0.21
   1   7  10    0.75    0.80
  -1   7  10    1.82    1.01
   7  -1 -10    0.28    0.68
   7   1 -10    0.55    0.56
   1   7  10    1.54    0.56
   7   1  10    0.89    1.13
   7  -1  10    0.13    0.97
  -7   1  10    0.91    0.64
  -7  -1  10   -0.20    1.33
   7  -1 -12  148.20    2.28
   7   1 -12  145.43    2.16
   1   7 -12  138.42    9.72
  -1   7 -12  141.24    9.91
   1   7  12  150.16    2.16
  -1   7  12  131.26    9.33
   7  -1 -12  141.84   10.02
   7   1 -12  146.69    2.06
   1   7  12  145.16    2.35
  -1   7  12  143.22   10.28
   7   1  12  148.66    2.50
   7  -1  12  142.00   10.14
  -7   1  12  144.69    2.73
  -7  -1  12  140.07    9.99
   7  -1 -14    0.70    0.55
   7   1 -14    1.10    0.73
   1   7 -14    0.85    0.43
   1  -7 -14   -0.42    0.69
   1   7  14   -0.32    1.08
  -1   7  14    0.24    1.25
   7   1  14    0.85    0.62
   7  -1  14   -0.31    1.12
  -7   1  14   -0.72    1.08
  -7  -1  14    0.17    0.86
   7   2  -1  117.66    3.85
   7   2   1  123.82    3.81
   2   7  -1  128.62    3.99
   2   7   1  117.43    3.64
  -2   7  -1  122.78    3.78
  -2   7   1  126.74    3.91
  -7   2  -1  122.78    3.80
  -7   2   1  121.27    3.84
   7  -2  -1  126.11    3.98
   7  -2   1  121.13    3.78
   7   2  -1  110.55    3.49
   7   2   1  124.15    3.85
   2   7  -1  123.66    3.81
   2   7   1  114.46    3.47
  -2   7   1  126.37    3.82
   7   2   1  126.86    3.81
  -7   2   1  119.54    3.62
   7   2  -3  241.86    7.65
   2   7  -3  252.47    7.67
   7   2   3  253.69    7.60
  -2   7  -3  243.04    7.41
   2   7   3  247.41    7.53
  -2   7   3  247.56    7.66
  -7   2   3  251.22    7.75
   7  -2  -3  243.59    7.64
   7   2  -3  242.50    7.43
   7  -2   3  264.67    8.04
   7   2   3  254.39    7.78
   2   7  -3  255.89    7.77
   2   7   3  243.17    7.32
  -2   7   3  246.75    7.49
   7   2   3  257.08    7.76
  -7   2   3  244.36    7.45
   7  -2   3  242.27    7.46
   7   2  -5  199.17    6.19
   2   7  -5  203.13    6.17
  -2   7  -5  195.20    5.80
   2   7   5  202.34    6.07
  -2   7   5  205.79    6.22
   7   2   5  212.71    6.23
  -7   2   5  202.12    6.25
   7  -2  -5  213.80    6.96
   7   2  -5  202.80    6.63
   7  -2   5  203.42    6.00
   2   7  -5  206.38    6.15
   7   2   5  207.26    6.24
   2   7   5  199.68    5.98
  -2   7   5  204.50    6.14
   7   2   5  202.86    6.18
  -7   2   5  206.13    6.33
   7  -2   5  200.06    6.14
   7   2  -7   90.58    6.56
   2   7  -7   92.27    6.61
  -2   7  -7   85.18    6.08
   2   7   7   93.33    6.67
  -2   7   7   92.09    6.61
   7  -2  -7   85.71    6.18
   7   2  -7   93.33    6.68
   2   7  -7   90.59    6.43
   2   7   7   95.09    6.83
  -2   7   7   93.59    6.74
   7   2   7   90.11    6.53
  -7   2   7   91.38    6.62
   7  -2   7   97.12    7.08
  -7  -2   7   92.10    6.71
   7  -2  -9   64.57    4.11
   7   2  -9   63.63    4.09
   2   7  -9   67.46    4.17
  -2   7  -9   62.16    3.69
   2   7   9   62.11    3.85
  -2   7   9   65.84    4.05
   7  -2  -9   73.14    4.74
   7   2  -9   58.77    3.66
   2   7   9   59.99    3.71
  -2   7   9   69.73    4.26
   7   2   9   65.55    4.04
  -7   2   9   63.97    4.05
   7  -2   9   66.98    4.31
  -7  -2   9   64.72    4.14
   7  -2 -11   58.35    5.31
   7   2 -11   55.28    5.09
   2   7 -11   55.84    4.97
  -2   7 -11   55.90    4.91
   2   7  11   55.65    4.95
  -2   7  11   54.29    4.86
   7  -2 -11   57.91    5.22
   7   2 -11   58.06    5.13
   2   7  11   58.26    5.24
  -2   7  11   55.12    4.95
   7   2  11   56.89    5.18
  -7   2  11   54.27    4.97
   7  -2  11   59.01    5.35
  -7  -2  11   61.30    5.59
   7  -2 -13   54.51    5.98
   7   2 -13   46.15    5.01
   2   7 -13   43.19    4.71
  -2   7  13   44.76    4.92
   2  -7 -13   52.51    6.23
   7  -2 -13   50.06    5.46
   7   2 -13   44.88    4.95
   2   7  13   41.82    4.67
  -2   7  13   42.49    4.68
   7   2  13   49.30    5.42
  -7   2  13   47.40    5.26
   7  -2  13   50.12    5.54
  -7  -2  13   50.35    5.56
   7   3   0   30.69    1.10
   3   7   0   30.83    1.08
  -3   7   0   32.67    1.12
  -7   3   0   34.20    1.27
   7  -3   0   32.73    1.32
   7   3   0   29.03    1.15
   3   7   0   30.36    1.62
  -3   7   0   32.52    1.05
   7   3   0   32.45    1.01
  -7   3   0   32.09    0.98
   7   3  -2   47.19    1.85
   3   7  -2   43.16    1.50
   7   3   2   44.54    1.46
   3   7   2   45.24    1.51
  -3   7  -2   42.17    1.37
  -3   7   2   41.08    1.41
  -7   3  -2   43.28    1.43
  -7   3   2   45.26    1.66
   7  -3  -2   42.85    1.63
   7  -3   2   40.68    1.40
   7   3  -2   43.61    1.53
   7   3   2   42.20    2.06
   3   7  -2   43.71    1.56
   3   7   2   42.41    1.36
  -3   7   2   41.73    1.33
   7   3   2   41.68    1.33
  -7   3   2   44.73    1.49
   7   3  -4   24.25    1.27
   3   7  -4   23.87    0.99
  -3   7  -4   24.62    0.86
   7   3   4   24.91    0.81
   3   7   4   23.18    0.83
  -3   7   4   24.94    0.98
  -7   3  -4   23.51    0.73
  -7   3   4   24.09    1.23
   7  -3  -4   26.85    1.37
   7   3  -4   27.18    1.15
   7  -3   4   28.58    0.99
   3   7  -4   23.11    0.94
   7   3   4   22.68    0.91
   3   7   4   24.37    0.91
  -3   7   4   23.42    0.86
   7   3   4   26.50    0.98
  -7   3   4   24.72    1.17
   7   3  -6   31.98    1.65
   3   7  -6   33.88    1.59
  -3   7  -6   30.80    1.27
   3   7   6   30.86    1.36
   7   3   6   31.69    1.25
  -3   7   6   32.33    1.65
  -7   3   6   30.71    1.61
   7  -3  -6   32.82    1.76
   7   3  -6   31.27    1.46
   3   7  -6   32.72    1.39
   7  -3   6   31.14    1.25
   7   3   6   32.07    1.41
   3   7   6   30.32    2.05
  -3   7   6   35.12    1.74
   7   3   6   31.90    1.53
  -7   3   6   30.71    1.48
   7  -3   6   30.13    1.50
   7   3  -8   10.44    2.72
   3   7  -8   12.18    2.18
  -3   7  -8   12.15    0.88
   3   7   8   11.63    1.08
  -3   7   8   11.97    2.64
   7  -3  -8   12.39    1.39
   7   3  -8   10.82    2.31
   3   7  -8   10.17    0.74
   3   7   8   11.60    2.98
  -3   7   8   12.05    3.02
   7   3   8    9.78    2.86
  -7   3   8   13.50    3.11
   7  -3   8   10.43    3.35
   7  -3 -10   26.16    2.20
   7   3 -10   24.03    1.97
   3   7 -10   25.57    1.93
  -3   7 -10   23.34    1.68
   3   7  10   25.18    1.89
  -3   7  10   21.31    1.92
   7  -3 -10   22.64    2.04
   7   3 -10   25.89    1.91
   3   7  10   22.33    1.84
  -3   7  10   24.18    1.92
   7   3  10   22.60    1.86
  -7   3  10   20.96    1.84
   7  -3  10   22.92    1.98
   7  -3 -12   14.01    1.09
   7   3 -12   14.13    3.67
   3   7 -12   12.88    2.86
  -3   7  12   13.14    0.80
   3  -7 -12   14.93    3.32
   7  -3 -12   15.07    0.92
   7   3 -12   11.34    0.78
   3   7  12   13.07    2.61
  -3   7  12   11.04    4.25
   7   3  12   11.68    0.93
  -7   3  12   13.10    4.45
   7  -3  12   13.12    1.18
   7  -3 -14   20.66    9.00
   7   3 -14   22.86    9.94
   3   7 -14   20.25    8.80
   3  -7 -14   22.66    9.86
   7  -3 -14   20.85    9.18
   3   7  14   22.93   11.18
  -3   7  14   26.06   11.34
   7   3  14   25.49   11.12
  -7   3  14   21.86    9.55
   7  -3  14   22.16    9.70
   7   4  -1  364.38   11.08
   7   4   1  392.79   11.85
   4   7  -1  401.52   12.13
   4   7   1  382.07   11.76
  -4   7  -1  393.83   11.88
  -4   7   1  385.05   11.57
  -7   4  -1  397.81   12.01
  -7   4   1  392.43   11.82
   7  -4  -1  380.53   11.87
   7  -4   1  396.05   12.17
   7   4  -1  390.52   12.09
   7   4   1  387.60   12.10
   4   7  -1  386.26   11.74
   4   7   1  388.13   11.89
  -7   4  -1  376.77   11.23
   4   7   1  392.62   11.77
  -4   7   1  385.39   11.65
   7   4   1  394.44   11.93
  -7   4   1  396.94   11.84
   7   4  -3  191.87    5.90
   4   7  -3  181.61    5.47
   7   4   3  186.36    5.48
  -4   7  -3  188.34    5.60
   4   7   3  193.30    5.74
  -4   7   3  183.66    5.51
  -7   4  -3  186.54    5.50
  -7   4   3  184.68    5.76
   4  -7   3  186.66    5.61
   7  -4  -3  177.83    5.80
   7  -4   3  185.95    5.69
   7   4  -3  203.33    6.27
   4   7  -3  183.03    5.59
   7   4   3  188.38    5.69
   4   7   3  188.18    5.56
  -4   7   3  175.77    5.22
   7   4   3  180.59    5.49
  -7   4   3  189.16    5.71
   7   4  -5  183.80    7.19
   4   7  -5  191.77    7.30
  -4   7  -5  190.74    7.08
   7   4   5  190.14    7.03
   4   7   5  185.35    6.95
  -7   4  -5  184.89    6.82
  -4   7   5  194.78    7.35
  -7   4   5  188.18    7.18
   7  -4  -5  179.48    6.99
   7   4  -5  184.92    7.00
   7  -4   5  181.16    6.74
   4   7  -5  185.57    6.99
   7   4   5  177.86    6.76
   4   7   5  183.09    6.85
  -4   7   5  189.66    7.17
   7   4   5  191.59    7.21
  -7   4   5  189.67    7.18
   7   4  -7  150.31    9.17
   4   7  -7  158.16    2.21
  -4   7  -7  152.25    9.09
  -7   4  -7  142.94    8.50
   4   7   7  150.79    9.08
  -4   7   7  145.68    8.80
  -7   4   7  153.38    2.25
   7  -4  -7  150.95    9.24
   7   4  -7  159.07    1.75
   4   7  -7  161.16    1.48
   4   7   7  156.28    1.76
  -4   7   7  128.92    7.87
   7   4   7  151.10    9.12
  -7   4   7  153.73    2.25
   7   4  -9  160.49   10.75
   4   7  -9  155.10    9.12
  -4   7  -9  162.56    9.42
   4   7   9  166.71    9.73
  -4   7   9  152.36    8.97
  -7   4   9  172.27   10.33
   4  -7  -9  157.62    9.49
   7  -4  -9  162.45    9.60
   7   4  -9  163.95    9.55
   4   7   9  157.52    9.30
  -4   7   9  158.57    9.31
   7   4   9  162.98    9.56
  -7   4   9  167.29    9.85
   7  -4   9  162.14    9.88
   7   4 -11   55.60    5.05
   4   7 -11   49.07    4.43
  -4   7  11   52.83    4.86
   4  -7 -11   53.29    4.84
   7  -4 -11   50.27    4.64
   7   4 -11   53.36    4.73
   4   7  11   61.13    5.64
  -4   7  11   52.17    4.71
   7   4  11   57.24    5.20
  -7   4  11   52.09    5.31
   7  -4  11   59.04    5.41
   7  -4 -13   49.91    5.45
   7   4 -13   52.60    5.69
   4   7 -13   49.42    5.31
  -4   7  13   54.84    5.94
   4  -7 -13   56.46    6.52
   7  -4 -13   50.64    5.45
   4   7  13   52.19    5.76
  -4   7  13   56.08    6.17
   7   4  13   52.31    6.35
  -7   4  13   54.79    6.00
   7  -4  13   52.50    5.83
   7   5   0   31.07    1.18
   5   7   0   32.38    1.21
  -5   7   0   30.39    1.09
  -7   5   0   32.98    1.22
   5  -7   0   27.46    1.23
   7  -5   0   31.20    2.19
   7   5   0   32.74    1.32
   5   7   0   30.37    1.12
   5   7   0   29.57    1.02
   7   5   0   29.84    1.02
  -5   7   0   29.33    0.95
  -7   5   0   31.90    1.02
   7   5  -2   53.52    1.83
   5   7  -2   53.17    1.80
   7   5   2   56.39    1.78
   5   7   2   56.06    1.76
  -5   7  -2   54.88    1.82
  -5   7   2   54.17    1.76
  -7   5  -2   55.79    1.76
  -7   5   2   54.63    1.85
   5  -7   2   57.67    2.21
   7  -5  -2   53.38    1.95
   7  -5   2   57.05    2.10
   7   5  -2   51.74    1.74
   5   7  -2   53.86    1.76
   7   5   2   59.49    2.15
   5   7   2   56.21    1.87
   5   7   2   53.83    1.66
   7   5   2   60.05    1.85
  -7   5   2   57.62    1.78
   7   5  -4   60.48    2.30
   5   7  -4   56.16    2.05
  -5   7  -4   57.38    1.81
   7   5   4   59.33    1.85
   5   7   4   58.07    1.87
  -7   5  -4   55.20    1.69
  -5   7   4   55.95    1.95
  -7   5   4   60.52    2.33
   7  -5  -4   55.26    2.24
   5  -7   4   56.99    1.89
   7  -5   4   55.82    1.77
   7   5  -4   56.31    2.20
   5   7  -4   57.71    1.97
   7   5   4   57.32    1.95
   5   7   4   54.01    1.85
   7   5   4   59.28    1.97
  -5   7   4   61.86    2.05
  -7   5   4   55.90    1.83
   7   5  -6   46.32    3.55
   5   7  -6   46.11    3.43
  -5   7  -6   46.14    3.31
  -7   5  -6   42.73    3.04
   5   7   6   46.00    3.34
   7   5   6   44.17    3.17
  -5   7   6   44.43    3.68
  -7   5   6   39.47    3.02
   5  -7  -6   44.96    3.46
   7  -5  -6   41.37    3.13
   7   5  -6   43.81    3.39
   5   7  -6   43.29    3.16
   5   7   6   44.96    3.36
   7   5   6   43.24    3.19
  -5   7   6   47.19    3.51
  -7   5   6   43.74    3.30
   7   5  -8   25.67    1.06
   5   7  -8   26.60    2.58
  -5   7  -8   23.18    0.56
   5   7   8   23.09    0.99
  -5   7   8   23.06    1.15
  -7   5   8   23.81    1.20
   5  -7  -8   24.30    1.55
   7  -5  -8   24.94    1.39
   7   5  -8   23.08    0.96
   5   7  -8   26.38    0.67
   5   7   8   22.59    0.97
   7   5   8   24.33    0.91
  -5   7   8   24.84    1.04
  -7   5   8   25.07    1.13
   7   5 -10   33.63    2.59
   5   7 -10   27.54    2.80
  -5   7  10   29.21    2.35
  -7   5  10   28.27    2.42
   5  -7 -10   33.24    2.77
   7  -5 -10   29.03    2.25
   7   5 -10   28.97    2.12
   5   7 -10   30.99    2.25
   5   7  10   34.30    2.61
  -5   7  10   33.55    2.60
   7   5  10   31.51    2.40
  -7   5  10   32.73    2.58
   7   5 -12   22.82    0.96
   5   7 -12   21.80    2.79
  -5   7  12   21.74    1.45
   5  -7 -12   23.78    1.23
   7  -5 -12   22.87    1.26
   5   7  12   21.08    1.24
   7   5  12   22.98    1.78
  -5   7  12   25.09    1.25
  -7   5  12   23.52    1.29
   7  -5 -14    7.89    2.87
   7   5 -14    4.56    1.35
   5   7 -14    5.95    1.37
   5  -7 -14    5.05    1.54
   7  -5 -14    6.89    2.26
   5   7  14    7.47    1.96
   7   5  14    5.41    1.54
  -5   7  14    4.52    1.19
  -7   5  14    5.63    1.94
   7   6  -1  165.79    5.05
   6   7  -1  162.93    5.21
   7   6   1  169.17    5.05
   6   7   1  166.19    5.23
  -6   7  -1  162.51    4.97
  -6   7   1  163.22    5.19
  -7   6  -1  157.61    4.98
  -7   6   1  164.08    5.37
   6  -7  -1  168.15    5.28
   6  -7   1  164.95    5.09
   7  -6  -1  164.02    5.33
   7  -6   1  164.81    5.26
   7   6  -1  157.64    5.05
   6   7  -1  159.92    5.02
   7   6   1  164.86    5.13
   6   7   1  160.08    4.99
  -6   7  -1  183.27    5.48
  -7   6  -1  154.33    4.52
   6   7   1  161.67    4.77
   7   6   1  162.63    4.78
  -6   7   1  158.64    4.67
  -7   6   1  162.22    4.76
   7   6  -3   79.56    2.67
   6   7  -3   80.06    3.27
   7   6   3   78.81    2.49
   6   7   3   76.16    2.36
  -6   7  -3   77.28    2.38
  -7   6  -3   80.37    2.51
  -6   7   3   76.81    2.84
  -7   6   3   77.51    2.58
   6  -7  -3   75.33    2.72
   7  -6  -3   81.64    2.80
   6  -7   3   75.78    2.48
   7  -6   3   78.72    2.90
   7   6  -3   80.74    2.57
   6   7  -3   79.26    2.66
   7   6   3   81.39    2.93
   6   7   3   79.71    2.68
   6   7   3   75.82    2.41
   7   6   3   81.88    2.53
  -6   7   3   79.14    2.65
  -7   6   3   79.02    2.62
   7   6  -5   73.28    5.38
   6   7  -5   73.71    5.35
  -6   7  -5   72.18    5.14
  -7   6  -5   66.52    4.72
   7   6   5   69.38    4.94
   6   7   5   69.29    4.95
  -6   7   5   70.20    5.44
  -7   6   5   61.55    4.57
   6  -7  -5   64.41    4.74
   7  -6  -5   79.26    6.60
   7   6  -5   68.57    5.12
   6   7  -5   67.22    4.92
   7   6   5   70.57    5.07
   6   7   5   70.15    5.03
   7   6   5   69.74    5.01
  -6   7   5   70.95    5.12
  -7   6   5   67.59    4.90
   7   6  -7   53.14    1.43
   6   7  -7   52.68    1.25
  -6   7  -7   55.85    0.75
  -7   6  -7   54.91    0.63
   6   7   7   56.19    1.02
  -6   7   7   59.38    1.72
  -7   6   7   53.83    1.56
   6  -7  -7   56.63    2.68
   7  -6  -7   50.21    1.29
   6   7   7   53.18    1.65
   7   6   7   50.82    1.36
  -7   6   7   55.93    1.39
   7   6  -9   80.89    5.62
   6   7  -9   77.85    5.41
  -6   7   9   77.49    5.46
  -7   6   9   71.01    5.02
   6  -7  -9   82.18    5.74
   7  -6  -9   78.92    5.51
   7   6  -9   80.03    5.49
   6   7  -9   81.06    5.52
   6   7   9   80.05    5.54
   7   6   9   84.85    6.01
  -6   7   9   73.51    5.12
  -7   6   9   76.86    5.42
   7   6 -11   37.80    2.86
   6   7 -11   43.45    3.30
  -6   7  11   35.48    2.79
  -7   6  11   35.91    2.92
   6  -7 -11   35.26    2.75
   7  -6 -11   39.19    3.03
   7   6 -11   35.46    2.60
   6   7  11   39.45    3.01
   7   6  11   38.50    2.96
  -6   7  11   35.81    6.16
  -7   6  11   39.34    3.10
   7   6 -13   25.67    1.04
   6   7 -13   23.23    0.95
   6  -7 -13   22.53    1.48
   7  -6 -13   23.30    1.13
   6   7  13   26.76    1.30
   7   6  13   26.48    1.34
  -6   7  13   18.76    3.96
  -7   6  13   20.77    1.46
   7   7   0  478.93   14.27
  -7   7   0  438.48   13.22
   7  -7   0  462.56   14.20
   7   7   0  477.56   14.45
   7   7   0  430.29   12.65
  -7   7   0  458.33   13.48
   7   7  -2    3.38    0.88
   7   7   2    3.51    1.09
  -7   7  -2    3.09    0.82
  -7   7   2    3.78    1.17
   7  -7  -2    2.81    0.56
   7  -7   2    2.73    0.52
   7   7  -2    2.47    0.73
   7   7   2    3.09    0.89
   7   7   2    2.84    0.78
  -7   7   2    3.27    0.62
   7   7  -4  113.16    8.16
   7   7   4  109.83    7.82
  -7   7  -4  105.93    7.50
  -7   7   4  109.23    8.00
   7  -7  -4  110.58    7.99
   7  -7   4  103.75    7.40
   7   7  -4  114.39    8.20
   7   7   4  110.75    7.91
   7   7   4  114.61    8.13
  -7   7   4  114.99    8.19
   7   7  -6   -0.34    0.71
  -7   7  -6    0.33    0.32
   7   7   6    0.33    0.27
  -7   7   6    0.11    0.60
   7  -7  -6   -0.14    1.06
   7   7  -6    0.69    0.41
   7   7   6   -0.21    0.61
  -7   7   6   -0.28    0.86
   7   7  -8  209.65   14.22
  -7   7   8  203.41   13.89
   7  -7  -8  205.66   14.05
   7   7  -8  207.06   13.88
   7   7   8  213.60   14.36
  -7   7   8  216.30   14.59
   7   7 -10   -0.36    0.87
  -7   7  10    0.83    0.67
   7  -7 -10   -0.10    0.67
   7   7 -10    0.18    0.31
   7   7  10    0.54    0.64
  -7   7  10    1.07    0.71
   7   7 -12   51.62    5.55
  -7   7  12   53.24    5.87
   7  -7 -12   53.80    6.80
   7   7  12   52.47    5.69
  -7   7  12   50.76    5.55
   8   0   0  260.94    7.93
   0   8   0  253.99    7.80
   8   0   0  276.29    8.95
   0   8   0  273.05    8.18
   8   0  -2    8.91    0.65
   8   0   2    8.54    0.36
   0   8  -2    8.32    0.47
   0   8   2    9.24    0.48
   8   0  -2    9.80    1.98
   8   0   2   10.13    0.54
   0   8   2    8.92    0.39
   8   0   2    8.63    0.38
   8   0  -4  709.78   26.53
   0   8  -4  706.30   26.31
   0   8   4  696.14   20.52
   8   0  -4  719.30   26.61
   8   0   4  643.45   18.85
   0   8   4  679.21   19.98
   8   0   4  733.52   27.00
  -8   0   4  708.86   26.57
   8   0  -6    1.71    0.53
   0   8  -6    1.34    0.63
   0   8   6    2.02    0.54
   8   0  -6    1.23    0.40
   8   0   6    1.98    0.68
   0   8   6    2.12    0.56
   8   0   6    2.61    0.73
  -8   0   6    2.34    0.80
   8   0  -8  299.34   17.49
   0   8  -8  247.29    2.12
   0   8   8  263.15    2.98
   8   0  -8  264.25    4.06
   0   8   8  245.57    2.37
   8   0   8  272.33   15.86
  -8   0   8  269.56   15.76
   8   0 -10    4.20    1.71
   0   8 -10    3.74    1.09
   0   8  10    4.49    1.72
   8   0 -10    3.83    0.99
   0   8  10    2.20    0.70
   8   0  10    6.02    2.59
  -8   0  10    3.84    1.40
   8   0 -12  212.11   89.87
   0   8 -12  206.00    2.07
   0   8  12  208.34    2.66
   8   0 -12  204.94    2.38
   0   8  12  210.82   89.32
   8   0  12  204.74    3.06
  -8   0  12  222.39   94.25
   8   0 -14   -0.24    0.76
   8   0 -14   -0.16    0.52
   0   8  14    0.70    0.69
   8   0  14    0.71    0.58
  -8   0  14   -0.71    1.13
   8  -1  -1   23.20    0.97
   8  -1   1   21.39    1.05
   8   1  -1   23.83    1.07
   8   1   1   25.82    1.00
   1   8  -1   24.67    0.90
  -1   8  -1   23.01    0.91
   1   8   1   21.41    0.80
  -1   8   1   23.77    0.91
   8  -1  -1   22.81    1.09
   8  -1   1   21.78    1.19
   8   1  -1   22.35    0.94
   8   1   1   29.61    1.66
   1   8   1   21.56    0.74
  -1   8   1   24.87    0.84
   8   1   1   23.67    0.76
   8  -1  -3  107.58    3.91
   8   1  -3  101.53    3.33
   8  -1   3   97.26    2.87
   8   1   3  105.56    3.11
   1   8  -3  104.88    3.23
  -1   8  -3  100.29    3.11
   1   8   3  104.36    3.28
  -1   8   3   96.92    3.00
   8  -1  -3   96.10    3.28
   8   1  -3  102.18    3.32
   8  -1   3  100.18    3.15
   8   1   3  101.87    3.19
   1   8  -3  103.11    3.12
   1   8   3   98.67    2.99
  -1   8   3   97.54    2.99
   8   1   3   97.41    2.97
   8  -1   3   96.62    2.97
  -8   1   3   99.29    3.29
   8  -1  -5   30.81    1.59
   8   1  -5   36.18    1.75
   1   8  -5   34.57    1.48
  -1   8  -5   32.39    1.37
   1   8   5   32.22    1.39
  -1   8   5   33.47    1.48
   8  -1  -5   36.32    2.38
   8   1  -5   36.57    1.79
   8  -1   5   34.88    1.55
   8   1   5   35.59    1.86
   1   8  -5   33.48    1.39
   1   8   5   34.09    1.50
  -1   8   5   35.78    1.53
   8   1   5   35.74    1.57
   8  -1   5   36.46    2.45
  -8   1   5   34.12    1.77
   8  -1  -7   32.93    2.30
   8   1  -7   35.63    3.12
   1   8  -7   30.99    2.02
  -1   8  -7   31.45    2.04
   1   8   7   33.49    2.18
  -1   8   7   33.32    2.17
   8  -1  -7   32.84    2.57
   8   1  -7   30.72    2.11
   1   8  -7   33.68    2.06
   8  -1   7   34.64    2.49
   8   1   7   34.85    2.21
   1   8   7   32.37    2.15
  -1   8   7   35.33    2.30
   8   1   7   32.09    2.16
   8  -1   7   29.70    2.10
  -8   1   7   33.62    2.37
  -8  -1   7   30.73    2.27
   8  -1  -9    2.47    1.15
   8   1  -9    3.16    0.83
   1   8  -9    3.20    0.84
  -1   8  -9    2.32    0.49
   1   8   9    3.79    1.20
  -1   8   9    2.73    0.52
   8  -1  -9    2.13    1.40
   8   1  -9    2.93    0.83
   1   8   9    2.86    0.71
  -1   8   9    3.64    0.88
   8   1   9    4.01    1.38
   8  -1   9    2.73    2.20
  -8   1   9    1.52    0.47
  -8  -1   9    2.96    1.96
   8  -1 -11   29.76    2.93
   8   1 -11   25.96    2.57
   1   8 -11   28.55    2.64
  -1   8 -11   23.43    2.15
   1   8  11   22.76    2.15
  -1   8  11   26.29    2.49
   8  -1 -11   26.80    3.73
   8   1 -11   27.70    2.74
   1   8  11   26.19    2.72
  -1   8  11   31.43    3.08
   8   1  11   27.29    2.76
   8  -1  11   25.27    2.60
  -8   1  11   26.43    2.94
  -8  -1  11   21.59    2.24
   8  -1 -13   12.30    3.35
   8   1 -13   14.78    1.79
   1   8 -13   16.17    3.15
  -1   8 -13   15.28    1.75
   1   8  13   11.73    2.65
  -1   8  13   12.49    1.53
   8  -1 -13   13.97    1.77
   8   1 -13   15.11    1.76
   1   8  13   13.54    4.03
  -1   8  13   17.04    3.97
   8   1  13   13.78    4.94
   8  -1  13   13.24    4.02
  -8   1  13   19.38    2.47
  -8  -1  13   13.06    2.47
   8   2   0  196.13    6.01
   2   8   0  207.48    6.32
  -2   8   0  205.57    6.32
  -8   2   0  216.92    6.72
   8  -2   0  211.07    6.53
   8   2   0  229.88    7.17
   2   8   0  207.49    6.28
  -2   8   0  200.80    6.05
   8   2   0  217.82    6.50
   8   2  -2    7.26    0.51
   8   2   2    9.12    0.45
   2   8  -2    9.03    0.49
  -2   8  -2   10.20    0.77
   2   8   2    9.36    0.58
  -2   8   2    9.21    0.50
  -8   2   2   11.66    1.66
   8  -2  -2    9.34    1.48
   8  -2   2   11.43    1.16
   8   2  -2   10.71    1.18
   8   2   2    8.79    0.76
   2   8  -2    8.70    0.50
   2   8   2    9.50    0.42
  -2   8   2    9.05    0.70
   8   2   2   10.07    0.40
  -8   2   2    9.24    0.64
   8   2  -4  270.25    8.87
   2   8  -4  270.71    8.14
  -2   8  -4  271.40    8.08
   8   2   4  270.32    7.88
   2   8   4  255.26    7.55
  -2   8   4  251.92    7.61
   8  -2  -4  260.32    7.83
   8   2  -4  259.26    7.79
   8  -2   4  258.04    7.62
   8   2   4  261.58    7.88
   2   8  -4  264.60    7.86
   2   8   4  265.74    7.85
  -2   8   4  259.80    7.77
   8   2   4  265.54    8.15
  -8   2   4  263.80    7.97
   8  -2   4  260.35    7.75
   8   2  -6    5.65    3.43
   2   8  -6    5.98    1.27
  -2   8  -6    6.04    1.44
   2   8   6    6.57    0.67
  -2   8   6    7.25    2.11
   8  -2  -6    6.55    2.49
   8   2  -6    6.56    1.82
   2   8  -6    6.66    1.22
   8  -2   6    6.21    0.56
   8   2   6    6.32    0.77
   2   8   6    7.46    0.78
  -2   8   6    7.32    2.26
   8   2   6    4.89    1.61
  -8   2   6    5.70    1.72
   8  -2   6    6.28    1.96
   8  -2  -8   60.91    1.56
   8   2  -8   52.52    1.61
   2   8  -8   57.82    1.19
  -2   8  -8   53.35    0.94
   2   8   8   55.97    1.25
  -2   8   8   59.06    1.22
   8  -2  -8   57.44    1.55
   8   2  -8   56.17    1.23
   2   8  -8   56.38    0.73
   2   8   8   56.54    1.33
  -2   8   8   60.43    1.39
   8   2   8   59.96    1.50
  -8   2   8   49.95    1.51
   8  -2   8   51.10    1.66
   8  -2 -10    1.00    0.53
   8   2 -10    0.72    0.63
   2   8 -10    1.19    0.41
  -2   8 -10    1.38    0.51
   2   8  10    1.44    0.39
  -2   8  10    1.71    0.49
   8  -2 -10    0.88    0.78
   8   2 -10    2.02    0.59
   2   8  10    1.58    0.54
  -2   8  10    1.52    0.30
   8   2  10    1.45    0.48
  -8   2  10    1.12    0.96
   8  -2  10    2.44    1.03
  -8  -2  10    0.24    0.72
   8  -2 -12   72.98    2.15
   8   2 -12   64.28    1.61
   2   8 -12   66.91    1.29
  -2   8 -12   64.17    1.25
   2   8  12   65.41    1.70
  -2   8  12   62.64    1.79
   8  -2 -12   69.56    1.95
   8   2 -12   66.93    2.00
   2   8  12   66.88    1.79
  -2   8  12   70.80    1.91
   8   2  12   61.93    1.75
  -8   2  12   62.09    1.95
   8  -2  12   64.97    1.96
  -8  -2  12   65.23    1.96
   8  -2 -14    0.66    0.48
   8   2 -14   -0.60    0.80
   2   8 -14    0.41    0.27
  -2   8  14    1.05    0.44
   2  -8 -14    1.22    0.30
   2   8  14    0.50    0.52
  -2   8  14    0.57    1.13
   8   2  14    0.28    0.62
  -8   2  14    0.56    0.85
   8   3  -1  142.79    4.49
   8   3   1  143.27    4.42
   3   8  -1  138.66    4.30
   3   8   1  138.71    4.29
  -3   8  -1  141.17    4.42
  -3   8   1  146.56    4.57
  -8   3  -1  144.55    4.46
  -8   3   1  141.39    4.62
   8  -3  -1  140.65    4.53
   8  -3   1  142.58    4.52
   8   3  -1  147.25    4.63
   8   3   1  140.21    4.48
   3   8  -1  140.75    4.43
   3   8   1  140.45    4.29
  -3   8   1  144.30    4.37
  -8   3  -1  141.64    4.22
   8   3   1  148.11    4.45
  -8   3   1  140.31    4.23
   8   3  -3  168.23    5.36
   3   8  -3  156.35    4.79
   8   3   3  157.28    4.71
  -3   8  -3  158.33    4.77
   3   8   3  159.12    4.78
  -3   8   3  157.51    4.92
  -8   3  -3  150.53    4.50
  -8   3   3  164.54    5.12
   8  -3  -3  151.57    4.85
   8  -3   3  159.21    4.82
   8   3  -3  162.79    5.02
   8   3   3  152.64    4.84
   3   8  -3  154.20    4.71
   3   8   3  156.33    4.64
  -3   8   3  155.52    4.67
   8   3   3  159.63    4.77
  -8   3   3  149.58    4.68
   8   3  -5  210.45    8.00
   3   8  -5  228.22    8.56
  -3   8  -5  207.16    7.78
   3   8   5  209.30    7.84
   8   3   5  212.87    7.85
  -3   8   5  213.59    8.02
  -8   3   5  210.96    8.36
   8  -3  -5  215.09    8.40
   8   3  -5  198.27    7.88
   8  -3   5  206.98    7.69
   3   8  -5  216.63    8.19
   8   3   5  211.89    8.03
   3   8   5  213.54    8.08
  -3   8   5  211.52    7.96
   8   3   5  216.53    8.12
  -8   3   5  213.13    8.21
   8   3  -7  104.43    6.47
   3   8  -7   98.40    6.05
  -3   8  -7   99.13    5.97
   3   8   7   96.49    5.84
  -3   8   7   98.70    6.02
   8  -3  -7   98.66    6.12
   8   3  -7  105.30    6.44
   3   8  -7   95.54    5.75
   3   8   7  105.26    6.43
  -3   8   7  104.71    6.46
   8   3   7   96.53    5.92
  -8   3   7  107.00    6.67
   8  -3   7  101.87    6.28
   8   3  -9  126.87    8.74
   3   8  -9  115.37    7.82
  -3   8  -9  118.13    7.96
   3   8   9  110.41    7.55
  -3   8   9  115.66    7.89
   8  -3  -9  114.86    7.92
   8   3  -9  120.93    8.20
   3   8   9  115.91    7.93
  -3   8   9  118.39    8.25
   8   3   9  110.07    7.53
  -8   3   9  121.53    8.37
   8  -3   9  116.90    8.09
   8  -3 -11   70.18    6.32
   8   3 -11   76.69    6.86
   3   8 -11   67.27    6.03
  -3   8 -11   64.35    5.65
   3   8  11   76.32    6.77
  -3   8  11   65.34    5.86
   3  -8 -11   69.52    6.35
   8  -3 -11   67.39    6.00
   8   3 -11   65.63    5.82
   3   8  11   71.65    6.44
  -3   8  11   65.57    5.88
   8   3  11   70.55    6.33
  -8   3  11   60.23    5.50
   8  -3  11   64.29    5.88
   8  -3 -13   52.33    1.90
   8   3 -13   51.19    1.40
   3   8 -13   55.23    1.34
  -3   8  13   54.85    1.67
   3  -8 -13   51.44    1.53
   8  -3 -13   55.62    1.76
   8   3 -13   50.31    2.24
   3   8  13   50.00    1.89
  -3   8  13   56.71    1.68
   8   3  13   57.62    1.94
  -8   3  13   50.79    1.72
   8  -3  13   56.88    1.81
   8   4   0    1.24    0.45
   4   8   0    1.32    0.40
  -4   8   0    0.86    0.26
  -8   4   0    0.31    0.48
   8  -4   0    1.00    0.28
   8   4   0    0.65    0.26
   4   8   0    1.33    0.34
   4   8   0    1.14    0.43
  -4   8   0    0.93    0.24
   8   4   0    0.70    0.22
  -8   4   0    0.73    0.19
   8   4  -2    8.31    2.04
   4   8  -2    7.35    0.46
   8   4   2    8.13    0.38
   4   8   2    7.94    0.43
  -4   8  -2    7.65    0.42
  -4   8   2    9.38    0.63
  -8   4  -2    8.63    0.46
  -8   4   2    9.43    0.63
   8  -4  -2    6.06    0.58
   8  -4   2    7.81    0.65
   8   4  -2    7.39    0.56
   8   4   2    7.50    0.54
   4   8  -2    7.66    0.46
   4   8   2    6.92    0.38
  -4   8   2    7.65    0.48
   8   4   2    7.62    0.37
  -8   4   2    8.12    0.84
   8   4  -4    8.71    2.69
   4   8  -4    9.19    0.69
  -4   8  -4    7.56    0.44
   8   4   4    7.59    0.37
   4   8   4    7.68    0.50
  -4   8   4    7.79    0.58
  -8   4  -4    7.19    0.39
  -8   4   4    8.73    0.73
   4  -8   4    7.78    0.53
   8  -4  -4    9.96    1.07
   8   4  -4    9.12    2.28
   8  -4   4    7.63    0.97
   4   8  -4    9.00    1.33
   8   4   4    8.13    0.64
   4   8   4    7.79    0.51
  -4   8   4    8.64    1.07
   8   4   4    8.15    0.59
  -8   4   4    7.45    1.62
   8   4  -6    2.07    0.45
   4   8  -6    2.32    0.80
  -4   8  -6    2.30    0.57
   4   8   6    2.50    0.79
  -4   8   6    3.66    1.04
  -8   4   6    2.61    0.75
   8  -4  -6    0.83    1.13
   8   4  -6    2.68    0.57
   4   8  -6    2.21    0.45
   8   4   6    3.10    1.20
   4   8   6    2.84    0.46
  -4   8   6    2.30    0.67
   8   4   6    2.14    0.72
  -8   4   6    2.34    0.52
   8   4  -8    6.32    1.51
   4   8  -8    8.10    1.58
  -4   8  -8    6.29    1.38
   4   8   8    7.19    1.61
  -4   8   8    6.65    1.89
  -8   4   8    7.98    1.09
   8  -4  -8    7.93    1.79
   8   4  -8    6.32    1.25
   4   8  -8    5.30    0.91
   4   8   8    7.39    0.79
  -4   8   8    6.57    1.84
   8   4   8    6.69    2.12
  -8   4   8    6.24    1.99
   8   4 -10    0.36    0.63
   4   8 -10    0.35    0.22
  -4   8 -10    0.32    0.28
   4   8  10    0.39    0.19
  -4   8  10    0.74    0.53
   4  -8 -10    0.66    0.36
   8  -4 -10    0.17    0.50
   4   8  10    0.53    1.05
  -4   8  10   -0.16    0.97
  -8   4  10    1.25    1.37
   8  -4  10   -0.39    0.97
   8  -4 -12    1.86    0.89
   8   4 -12    1.00    0.80
   4   8 -12    1.54    0.72
  -4   8  12    0.65    0.72
   4  -8 -12    1.27    0.61
   8  -4 -12    0.82    0.58
   8   4 -12    0.59    0.48
   4   8  12    1.72    0.95
  -4   8  12    0.18    0.62
   8   4  12    3.39    1.97
  -8   4  12    0.66    0.90
   8  -4  12    0.60    0.69
   8  -4 -14   -0.40    0.82
   8   4 -14   -0.09    0.35
   4   8 -14    0.83    0.30
  -4   8  14    0.06    0.73
   4  -8 -14    0.47    0.54
   8  -4 -14    0.75    0.32
   4   8  14    0.40    1.03
  -4   8  14   -0.35    0.99
   8   4  14    0.82    0.92
  -8   4  14    0.54    0.71
   8   5  -1  268.18    8.12
   8   5   1  262.76    8.00
   5   8  -1  262.48    8.35
   5   8   1  276.60    8.21
  -5   8  -1  268.53    8.08
  -5   8   1  258.16    8.04
  -8   5  -1  273.90    8.17
  -8   5   1  276.64    8.41
   5  -8   1  263.94    8.03
   8  -5  -1  266.63    8.63
   8  -5   1  269.85    8.15
   8   5  -1  254.72    7.60
   8   5   1  260.97    7.79
   5   8  -1  262.81    8.25
   5   8   1  281.18    8.36
  -8   5  -1  252.84    7.44
   5   8   1  275.53    8.11
   8   5   1  272.62    7.96
  -5   8   1  276.14    8.08
  -8   5   1  274.24    8.01
   8   5  -3  120.23    4.75
   5   8  -3  120.56    4.70
   8   5   3  117.15    4.40
   5   8   3  118.84    4.48
  -5   8  -3  115.93    4.45
  -5   8   3  118.97    4.58
  -8   5  -3  121.88    4.56
  -8   5   3  122.48    4.73
   5  -8   3  121.46    4.68
   8  -5  -3  120.23    5.11
   8  -5   3  117.54    4.79
   8   5  -3  121.60    4.71
   5   8  -3  119.93    4.62
   8   5   3  118.82    4.57
   5   8   3  119.63    4.50
  -5   8   3  113.21    4.28
   8   5   3  119.71    4.59
  -8   5   3  122.84    4.67
   8   5  -5   86.37    6.23
   5   8  -5   92.34    6.68
  -5   8  -5   83.52    5.93
   8   5   5   87.93    6.23
   5   8   5   83.14    5.93
  -8   5  -5   84.06    5.94
  -5   8   5   90.80    6.61
  -8   5   5   89.87    6.54
   8  -5  -5   87.22    6.32
   8   5  -5   88.81    6.56
   8  -5   5   83.69    5.96
   5   8  -5   86.97    6.28
   8   5   5   86.06    6.18
   5   8   5   87.78    6.26
  -5   8   5   89.36    6.41
   8   5   5   87.30    6.24
  -8   5   5   87.08    6.28
   8   5  -7   95.54    1.90
   5   8  -7  101.38    1.80
  -5   8  -7   97.17    0.95
   5   8   7  102.97    1.28
  -5   8   7   99.39    1.89
   5  -8  -7  102.96    2.17
   8  -5  -7   96.02    1.78
   8   5  -7   97.18    1.40
   5   8  -7   96.87    1.27
   5   8   7  102.86    1.71
  -5   8   7   94.94    1.49
   8   5   7   98.58    1.60
   8   5  -9   87.89    6.19
   5   8  -9   76.44    5.33
  -5   8  -9   81.12    5.55
   5   8   9   83.76    5.80
  -5   8   9   76.40    5.39
  -8   5   9   81.19    5.86
   5  -8  -9   80.27    5.99
   8  -5  -9   79.72    5.62
   8   5  -9   78.19    5.40
   5   8  -9   75.92    6.19
   5   8   9   83.19    5.84
  -5   8   9   74.75    5.26
   8   5   9   85.50    6.01
  -8   5   9   91.61    6.47
   8   5 -11   44.62    3.34
   5   8 -11   38.55    2.85
  -5   8  11   38.36    3.00
   5  -8 -11   45.98    3.50
   8  -5 -11   41.13    3.95
   8   5 -11   45.69    3.35
   5   8  11   39.52    3.03
  -5   8  11   37.98    2.91
   8   5  11   40.32    3.07
  -8   5  11   42.00    3.93
   8  -5 -13   34.16   14.84
   8   5 -13   29.23   12.93
   5   8 -13   33.35   14.47
  -5   8  13   31.48   13.68
   5  -8 -13   34.28   14.92
   8  -5 -13   34.53   14.98
   5   8  13   30.15   13.13
  -5   8  13   26.51   12.45
   8   5  13   32.28   14.04
  -8   5  13   28.58   12.45
   8   6   0  225.32    7.19
   6   8   0  233.23    7.28
  -6   8   0  252.60    7.53
  -8   6   0  238.55    7.33
   6  -8   0  230.49    7.54
   8  -6   0  223.16    6.90
   8   6   0  231.90    7.00
   6   8   0  230.31    6.91
   8   6   0  212.76    6.28
  -6   8   0  232.17    6.80
  -8   6   0  230.56    6.83
   8   6  -2    0.39    0.79
   6   8  -2    1.03    0.65
   8   6   2    0.53    0.24
   6   8   2    0.64    0.32
  -6   8  -2    0.39    0.25
  -6   8   2    1.28    0.36
  -8   6  -2    0.83    0.38
   6  -8  -2   -0.12    0.86
   6  -8   2    0.38    0.36
   8  -6  -2    1.13    0.67
   8  -6   2    0.41    0.34
   8   6  -2    1.29    0.33
   6   8   2    0.64    0.64
   6   8   2    0.40    0.26
   8   6   2    0.64    0.23
  -6   8   2    0.91    0.26
  -8   6   2    0.87    0.27
   8   6  -4   83.22    6.46
   6   8  -4   76.24    5.52
   8   6   4   79.50    5.64
   6   8   4   72.19    5.26
  -6   8  -4   77.11    5.49
  -8   6  -4   78.49    5.58
  -6   8   4   71.04    5.32
  -8   6   4   80.15    5.84
   6  -8  -4   59.59    4.55
   8  -6  -4   74.30    5.75
   6  -8   4   79.76    5.71
   8  -6   4   74.13    5.33
   8   6  -4   74.99    5.54
   6   8  -4   76.03    5.47
   8   6   4   80.06    5.77
   6   8   4   73.37    5.25
   8   6   4   76.04    5.44
  -6   8   4   74.16    5.41
  -8   6   4   78.71    5.65
   8   6  -6   -0.57    0.89
   6   8  -6    0.33    0.54
  -6   8  -6   -0.13    0.29
  -8   6  -6    0.11    0.19
   6   8   6    0.67    0.23
  -6   8   6    0.93    0.72
  -8   6   6    1.02    0.81
   6  -8  -6    0.79    0.61
   8  -6  -6    0.54    1.03
   8   6  -6    0.39    0.55
   6   8  -6    0.26    0.67
   6   8   6    0.53    0.44
   8   6   6    1.43    0.42
  -6   8   6    0.73    0.94
  -8   6   6    0.94    0.72
   8   6  -8  130.58    9.13
   6   8  -8  129.51    8.92
  -6   8  -8  132.18    8.86
   6   8   8  130.91    8.81
  -6   8   8  154.29   11.20
  -8   6   8  127.12    8.72
   6  -8  -8  130.60    9.20
   8  -6  -8  132.48    9.42
   8   6  -8  142.46    9.67
   6   8  -8  133.03    9.07
   6   8   8  136.10    9.23
   8   6   8  128.53    8.75
  -6   8   8  130.68    8.89
  -8   6   8  131.56    9.23
   8   6 -10    1.78    1.26
   6   8 -10    2.53    1.05
  -6   8  10    4.02    1.09
  -8   6  10    0.95    0.50
   6  -8 -10    4.06    0.98
   8  -6 -10    2.53    0.62
   8   6 -10    2.62    0.96
   6   8 -10    2.70    0.57
   6   8  10    3.50    1.35
   8   6  10    1.59    0.50
  -6   8  10    2.42    0.75
  -8   6  10    0.73    1.34
   8   6 -12   40.40    4.51
   6   8 -12   40.77    4.46
  -6   8  12   34.80    3.96
   6  -8 -12   38.25    4.19
   8  -6 -12   36.80    4.54
   6   8  12   44.43    4.90
   8   6  12   36.35    4.10
  -6   8  12   39.61    4.39
  -8   6  12   34.90    3.98
   8   7  -1   15.22    0.81
   7   8  -1   16.42    1.26
   8   7   1   16.84    1.02
   7   8   1   15.17    1.15
  -7   8  -1   16.70    0.87
  -7   8   1   17.13    0.88
  -8   7  -1   17.12    1.69
  -8   7   1   18.19    1.09
   7  -8  -1   16.57    1.15
   7  -8   1   16.59    1.39
   8  -7  -1   17.47    1.20
   8  -7   1   17.70    1.25
   8   7  -1   16.10    0.87
   7   8  -1   15.80    0.89
   8   7   1   17.04    0.90
   7   8   1   16.14    0.89
  -7   8  -1   15.84    0.67
  -8   7  -1   16.18    0.66
   7   8   1   16.74    0.74
   8   7   1   17.81    0.76
  -7   8   1   17.52    0.78
  -8   7   1   16.32    0.70
   8   7  -3   16.45    1.37
   7   8  -3   15.98    1.34
   8   7   3   15.01    1.14
   7   8   3   16.31    1.41
  -7   8  -3   16.52    1.26
  -8   7  -3   17.08    1.30
  -7   8   3   14.59    1.50
  -8   7   3   15.17    2.47
   7  -8  -3   17.58    2.53
   8  -7  -3   16.14    1.46
   7  -8   3   15.95    1.30
   8  -7   3   19.31    1.98
   8   7  -3   16.22    1.38
   7   8  -3   18.84    1.81
   8   7   3   16.80    1.34
   7   8   3   17.53    1.57
   7   8   3   15.67    1.22
   8   7   3   18.54    1.61
  -7   8   3   17.31    1.33
  -8   7   3   15.99    1.24
   8   7  -5   13.07    1.12
   7   8  -5   14.33    1.20
   8   7   5   13.99    0.95
  -7   8  -5   12.87    0.86
   7   8   5   15.27    1.09
  -8   7  -5   13.85    0.93
  -7   8   5   14.82    2.98
  -8   7   5   15.99    1.43
   7  -8  -5   15.49    1.33
   8  -7  -5   14.10    1.35
   8   7  -5   14.98    1.84
   7   8  -5   13.30    0.99
   8   7   5   12.93    0.99
   7   8   5   13.30    0.96
   8   7   5   16.09    1.16
  -7   8   5   13.34    1.04
  -8   7   5   14.37    2.32
   8   7  -7   17.61    2.71
   7   8  -7   12.73    1.02
  -7   8  -7   16.12    1.08
   7   8   7   16.10    1.10
  -7   8   7   12.45    1.36
  -8   7   7   18.49    3.94
   7  -8  -7   15.58    2.75
   8  -7  -7   16.54    1.77
   8   7  -7   15.99    2.05
   7   8  -7   13.33    2.30
   7   8   7   16.57    1.26
   8   7   7   17.19    1.27
  -7   8   7   17.52    1.32
  -8   7   7   15.08    1.57
   8   7  -9   13.09    3.64
   7   8  -9   14.20    3.45
  -7   8   9   15.15    2.25
  -8   7   9   15.78    1.68
   7  -8  -9   14.31    1.79
   8  -7  -9   14.82    1.73
   8   7  -9   16.69    1.78
   7   8  -9   14.83    1.88
   7   8   9   15.07    1.54
   8   7   9   12.17    3.07
  -7   8   9   12.70    3.09
  -8   7   9   15.79    1.66
   8   7 -11    6.84    3.86
   7   8 -11    9.09    4.32
  -7   8  11    8.22    4.46
  -8   7  11    7.67    3.75
   7  -8 -11    9.62    4.78
   8  -7 -11    8.03    3.88
   8   7 -11    7.06    3.34
   7   8  11    7.05    3.09
   8   7  11    8.56    4.35
  -7   8  11    8.34    4.02
  -8   7  11    6.08    3.24
   8   7 -13    5.82    1.62
   7   8 -13    4.77    1.32
  -7   8  13    5.14    1.73
   7  -8 -13    5.39    1.78
   8  -7 -13    5.49    1.53
   7   8  13    5.78    1.60
   8   7  13    4.50    1.35
  -7   8  13    5.75    2.01
  -8   7  13    7.12    1.68
   8   8   0  481.37   28.61
  -8   8   0  489.39   29.07
   8  -8   0  439.61   27.05
   8   8   0  499.41   30.03
   8   8   0  424.03   25.17
  -8   8   0  433.74   25.69
   8   8  -2    0.43    0.31
   8   8   2    1.01    0.42
  -8   8  -2    0.69    0.34
  -8   8   2    1.51    1.34
   8  -8  -2    1.36    0.49
   8  -8   2    0.87    0.25
   8   8  -2    1.37    0.37
   8   8   2    1.04    0.58
   8   8   2    0.79    0.26
  -8   8   2    2.60    0.54
   8   8  -4  152.79    9.24
   8   8   4  145.16    8.67
  -8   8  -4  152.30    9.09
  -8   8   4  151.26    9.19
   8  -8  -4  158.63    3.30
   8   8  -4  143.47    8.70
   8   8   4  145.09    8.92
   8   8   4  146.23    8.98
  -8   8   4  152.25    9.13
   8   8  -6    2.49    0.73
  -8   8  -6    1.43    0.65
   8   8   6    2.18    0.69
  -8   8   6    1.91    0.75
   8  -8  -6    2.08    0.49
   8   8  -6    0.51    0.42
   8   8   6    2.00    0.79
  -8   8   6    2.37    0.62
   8   8  -8  212.88   18.41
  -8   8   8  207.55   18.50
   8  -8  -8  194.53   13.64
   8   8  -8  202.69   13.78
   8   8   8  212.29   18.31
  -8   8   8  202.99   14.89
   8   8 -10    0.56    0.69
  -8   8  10    0.37    0.41
   8  -8 -10    1.33    0.52
   8   8 -10    1.13    0.58
   8   8  10    0.36    0.82
  -8   8  10    2.28    0.63
   8   8 -12   56.67   24.56
  -8   8  12   54.37   23.56
   8  -8 -12   52.35   22.69
   8   8  12   57.80   25.06
  -8   8  12   48.43   21.02
   9   0  -1   11.81    0.89
   9   0   1   11.94    1.06
   0   9  -1   11.69    1.04
   0   9   1   12.96    0.62
   9   0  -1    9.30    0.58
   9   0   1   10.90    0.61
   9   0  -1   13.49    0.42
   0   9   1   10.30    0.47
   9   0  -3   85.85    2.88
   9   0   3   80.70    2.41
   0   9  -3   88.20    2.74
   0   9   3   80.50    2.54
   9   0  -3   87.16    3.10
   9   0   3   84.98    2.74
   0   9   3   86.46    2.70
   9   0   3   87.25    2.71
   9   0  -5   34.48    1.68
   0   9  -5   37.85    1.65
   0   9   5   41.32    1.80
   9   0  -5   37.23    1.71
   9   0   5   35.58    1.49
   0   9   5   36.37    1.54
   9   0   5   34.85    2.37
  -9   0   5   34.33    1.71
   9   0  -7   20.62    1.80
   0   9  -7   17.27    1.35
   0   9   7   19.90    3.31
   9   0  -7   19.32    1.61
   9   0   7   16.01    1.15
   0   9   7   17.86    1.39
   9   0   7   17.43    1.39
  -9   0   7   20.01    1.62
   9   0  -9    0.63    0.84
   0   9  -9    0.43    0.34
   0   9   9    1.21    0.36
   9   0  -9    1.24    0.75
   0   9   9    0.81    0.71
   9   0   9    0.81    0.73
  -9   0   9    0.92    0.96
   9   0 -11   23.06    5.17
   0   9 -11   20.38    1.57
   0   9  11   20.32    2.10
   9   0 -11   16.97    1.90
   0   9  11   22.67    1.97
   9   0  11   19.94    1.78
  -9   0  11   18.32    2.03
   9   0 -13    9.58    3.42
   0   9 -13   13.03    2.60
   0   9  13    8.54    3.37
   9   0 -13   11.78    2.49
   0   9  13   10.44    2.84
   9   0  13    9.70    3.33
  -9   0  13    7.28    4.39
   9  -1   0  287.82    8.84
   9   1   0  299.01    9.10
   1   9   0  312.18    9.22
  -1   9   0  302.12    9.05
   9  -1   0  296.75    8.84
   9   1   0  284.31    8.56
   1   9   0  287.34    8.41
  -1   9   0  275.96    8.06
   9   1   0  297.28    8.63
   9  -1  -2   12.90    0.74
   9  -1   2   14.07    0.61
   9   1  -2   15.33    0.89
   9   1   2   16.31    0.63
   1   9  -2   15.68    0.69
  -1   9  -2   13.64    0.66
   1   9   2   14.90    0.67
  -1   9   2   14.02    0.63
   9  -1  -2   17.46    0.90
   9   1  -2   13.03    0.70
   9  -1   2   13.39    0.88
   9   1   2   15.91    1.06
   1   9   2   15.91    0.61
  -1   9   2   15.29    0.61
   9   1   2   14.90    0.55
   9  -1  -4  411.67   15.71
   9   1  -4  429.13   16.10
   1   9  -4  427.98   16.18
  -1   9  -4  422.76   15.65
   1   9   4  420.24   15.54
  -1   9   4  418.88   15.73
   9  -1  -4  415.40   15.51
   9   1  -4  422.46   15.77
   9  -1   4  403.90   14.94
   9   1   4  419.98   15.70
   1   9   4  407.98   15.09
  -1   9   4  407.93   15.33
   9   1   4  431.27   16.02
   9  -1   4  411.65   15.34
  -9   1   4  434.28   16.19
   9  -1  -6   17.89    1.57
   9   1  -6   17.27    1.56
   1   9  -6   17.09    1.42
  -1   9  -6   16.33    1.29
   1   9   6   17.49    1.39
  -1   9   6   16.61    1.36
   9  -1  -6   16.69    1.91
   9   1  -6   17.72    1.68
   9  -1   6   15.66    1.23
   9   1   6   16.26    1.43
   1   9  -6   18.67    1.45
   1   9   6   16.36    1.36
  -1   9   6   18.52    1.49
   9   1   6   16.26    1.34
   9  -1   6   18.23    1.59
  -9   1   6   17.17    1.51
   9  -1  -8  143.70    8.59
   9   1  -8  140.45    8.32
   1   9  -8  146.37    8.57
  -1   9  -8  142.69    8.36
   1   9   8  153.31    8.98
  -1   9   8  149.57    8.74
   9  -1  -8  143.35    8.55
   9   1  -8  153.30    9.00
   1   9   8  142.67    8.38
  -1   9   8  150.67    8.88
   9   1   8  150.00    8.89
   9  -1   8  140.07    8.37
  -9   1   8  148.43    9.55
  -9  -1   8  145.61    8.68
   9  -1 -10    6.32    1.61
   9   1 -10    4.33    1.04
   1   9 -10    4.93    1.08
  -1   9 -10    3.83    1.08
   1   9  10    4.58    1.52
  -1   9  10    5.45    1.63
   9  -1 -10    4.05    1.41
   9   1 -10    4.49    0.99
   1   9  10    6.53    1.62
  -1   9  10    6.32    1.38
   9   1  10    4.35    1.97
   9  -1  10    4.33    0.92
  -9   1  10    3.46    1.25
  -9  -1  10    4.65    1.97
   9  -1 -12  114.89   48.71
   9   1 -12  117.38   12.45
   1   9 -12  118.52   12.53
  -1   9 -12  113.25   47.99
   1   9  12  112.20   47.55
  -1   9  12  117.87   12.48
   9  -1 -12  109.47   46.41
   9   1 -12  111.83   47.39
   1   9  12  118.66   12.64
  -1   9  12  115.06   48.79
   9   1  12  119.53   12.75
   9  -1  12  113.74   48.23
  -9   1  12  122.79   13.09
  -9  -1  12  128.50   13.72
   9  -1 -14    1.95    1.21
   9   1 -14    1.30    0.82
   1   9 -14    1.90    1.17
  -1   9  14    0.72    0.73
   1  -9 -14    1.77    1.09
   9  -1 -14    2.56    1.66
   9   1 -14    1.78    1.06
   1   9  14    3.29    2.38
   9   1  14    1.19    1.37
   9  -1  14    1.21    1.00
  -9   1  14    1.77    1.18
  -9  -1  14    1.17    1.22
   9   2  -1   89.50    3.08
   9   2   1   87.11    2.71
   2   9  -1   88.79    2.75
   2   9   1   87.31    2.77
  -2   9  -1   87.93    2.73
  -2   9   1   85.31    2.67
   9  -2  -1   85.20    2.82
   9  -2   1   94.92    3.05
   9   2  -1   86.43    2.87
   9   2   1   88.27    2.87
   2   9   1   88.09    2.64
  -2   9   1   87.55    2.66
   9   2   1   88.57    2.62
   9  -2   3   72.25    2.20
   9   2  -3   75.01    2.55
   9   2   3   76.81    2.30
   2   9  -3   76.45    2.42
  -2   9  -3   75.93    2.36
   2   9   3   77.48    2.46
  -2   9   3   72.91    2.36
   9  -2  -3   78.31    2.90
   9   2  -3   74.24    2.51
   9   2   3   75.00    2.54
   2   9  -3   77.56    2.44
   2   9   3   76.89    2.37
  -2   9   3   67.90    2.12
   9   2   3   76.20    2.36
  -9   2   3   72.99    3.29
   9   2  -5   77.52    5.70
   2   9  -5   72.54    5.21
  -2   9  -5   71.53    5.10
   2   9   5   74.86    5.36
  -2   9   5   62.49    4.58
   9  -2  -5   70.71    5.17
   9   2  -5   72.95    5.34
   9  -2   5   72.16    5.17
   9   2   5   78.62    5.65
   2   9  -5   73.42    5.25
   2   9   5   73.00    5.23
  -2   9   5   75.26    5.39
   9   2   5   77.04    5.56
  -9   2   5   77.31    5.66
   9  -2   5   72.40    5.26
   9  -2  -7   67.95    1.69
   9   2  -7   70.76    1.73
   2   9  -7   69.85    1.18
  -2   9  -7   70.60    1.01
   2   9   7   72.42    2.54
  -2   9   7   67.76    1.41
   9  -2  -7   65.58    1.82
   9   2  -7   73.65    1.66
   2   9  -7   72.91    1.41
   9   2   7   70.26    1.21
   2   9   7   73.09    1.68
  -2   9   7   72.34    1.46
   9   2   7   69.21    1.39
  -9   2   7   72.34    1.64
   9  -2   7   73.53    1.83
   9  -2  -9   77.00    5.42
   9   2  -9   76.79    5.38
   2   9  -9   79.67    5.49
  -2   9  -9   73.92    5.03
   2   9   9   75.95    5.25
  -2   9   9   73.65    5.10
   9  -2  -9   73.22    5.15
   9   2  -9   81.13    5.61
   2   9   9   78.10    5.41
  -2   9   9   70.53    4.92
   9   2   9   77.91    5.44
  -9   2   9   72.22    5.11
   9  -2   9   76.13    5.36
   9  -2 -11   43.46    3.40
   9   2 -11   48.35    4.31
   2   9 -11   46.67    3.50
  -2   9 -11   46.90    3.36
   2   9  11   48.00    3.57
  -2   9  11   44.46    3.41
   9  -2 -11   45.33    3.49
   9   2 -11   47.63    3.51
   2   9  11   44.66    3.39
  -2   9  11   43.84    3.32
   9   2  11   40.56    3.14
  -9   2  11   48.94    3.75
   9  -2  11   50.41    3.87
   9  -2 -13   25.14    1.28
   9   2 -13   21.63    1.01
   2   9 -13   26.86    0.98
  -2   9  13   22.87    1.18
   2  -9 -13   27.69    1.41
   9  -2 -13   26.56    1.12
   9   2 -13   23.65    0.97
   2   9  13   18.64    3.98
  -2   9  13   27.60    1.38
   9   2  13   24.18    2.04
  -9   2  13   26.64    1.55
   9  -2  13   23.26    1.36
   9   3   0   47.52    1.88
   3   9   0   46.96    1.57
  -3   9   0   46.61    1.54
  -9   3   0   49.67    1.73
   9  -3   0   44.51    1.81
   9   3   0   46.48    1.70
   3   9   0   45.73    1.47
  -3   9   0   43.52    1.38
   9   3   0   50.42    1.51
   9   3  -2   83.51    3.30
   9   3   2   83.11    2.69
   3   9  -2   80.95    2.56
   3   9   2   84.92    2.66
  -3   9  -2   84.62    2.63
  -3   9   2   79.93    2.52
  -9   3   2   87.14    3.23
  -9   3  -2   80.64    2.55
   9  -3  -2   80.35    3.01
   9  -3   2   80.59    2.60
   9   3  -2   86.65    3.11
   9   3   2   79.44    2.60
   3   9  -2   79.29    2.52
   3   9   2   84.50    2.60
  -3   9   2   78.68    2.39
   9   3   2   82.16    2.48
  -9   3   2   80.97    2.48
   9   3  -4   51.89    2.36
   3   9  -4   45.73    1.89
  -3   9  -4   49.02    1.94
   9   3   4   49.47    1.88
   3   9   4   46.19    1.87
  -3   9   4   47.42    2.07
  -9   3   4   47.41    2.12
   9  -3  -4   46.48    2.13
   9   3  -4   46.40    2.11
   9  -3   4   48.54    2.00
   9   3   4   48.01    2.00
   3   9  -4   47.08    1.90
   3   9   4   48.46    1.93
  -3   9   4   46.07    1.87
   9   3   4   49.60    2.03
  -9   3   4   46.12    2.07
   9   3  -6   55.34    3.55
   3   9  -6   51.83    3.24
  -3   9  -6   51.19    3.14
   3   9   6   51.71    3.21
  -3   9   6   56.85    3.54
   9  -3  -6   55.26    3.76
   9   3  -6   55.73    3.55
   3   9  -6   50.48    3.08
   9   3   6   54.06    3.34
   3   9   6   53.81    3.47
  -3   9   6   50.42    3.29
   9   3   6   50.90    3.19
  -9   3   6   55.03    3.52
   9  -3   6   50.67    3.30
   9   3  -8   20.78    2.56
   3   9  -8   21.81    1.48
  -3   9  -8   23.81    1.55
   3   9   8   20.66    1.41
  -3   9   8   21.41    1.72
   9  -3  -8   19.26    1.53
   9   3  -8   22.05    1.60
   3   9  -8   21.15    1.44
   3   9   8   22.75    1.68
  -3   9   8   21.02    1.50
   9   3   8   15.20    1.23
  -9   3   8   21.67    1.78
   9  -3   8   18.24    2.15
   9  -3 -10   13.18    2.99
   9   3 -10   26.15    2.64
   3   9 -10   24.92    2.31
  -3   9 -10   26.95    2.41
   3   9  10   24.23    2.24
  -3   9  10   23.94    2.39
   9  -3 -10   24.70    2.47
   9   3 -10   25.95    2.42
   3   9  10   24.08    2.32
  -3   9  10   23.42    2.24
   9   3  10   21.43    2.09
  -9   3  10   24.29    2.39
   9  -3  10   23.95    2.38
   9  -3 -12   15.81    6.79
   9   3 -12   11.87    6.08
   3   9 -12   13.68    6.14
  -3   9  12   15.22    6.54
   3  -9 -12   14.75    7.23
   9  -3 -12   12.63    5.46
   9   3 -12   14.42    6.19
   3   9  12   16.07    6.91
  -3   9  12   10.10    4.96
   9   3  12   12.69    5.60
  -9   3  12    9.70    5.12
   9  -3  12   11.99    6.29
   9  -3 -14   25.98   14.59
   9   3 -14   19.92   11.15
   3   9 -14   22.28   12.46
  -3   9  14   23.17   12.99
   3  -9 -14   27.52   15.40
   9  -3 -14   23.36   13.07
   3   9  14   21.06   13.03
  -3   9  14   20.24   11.35
   9   3  14   20.79   11.67
  -9   3  14   23.30   13.09
   9  -3  14   19.86   11.16
   9   4  -1  103.21    3.28
   9   4   1   99.38    3.21
   4   9  -1   99.29    3.41
   4   9   1   99.66    3.06
  -4   9  -1  102.92    3.20
  -4   9   1   98.31    3.35
  -9   4  -1  102.09    3.19
  -9   4   1  103.66    3.25
   9  -4  -1  100.07    3.65
   9  -4   1  102.44    3.52
   9   4  -1  101.53    3.65
   9   4   1   98.10    3.12
   4   9  -1  100.80    3.18
   4   9   1  103.55    3.31
   4   9   1  104.52    3.14
  -4   9   1  102.12    3.07
   9   4   1   99.23    3.01
  -9   4  -1   95.51    2.78
  -9   4   1   98.40    2.93
   9   4  -3   99.60    4.16
   4   9  -3   98.36    3.81
   9   4   3   92.54    3.49
  -4   9  -3   92.05    3.82
   4   9   3   97.81    3.79
  -4   9   3   93.94    3.66
  -9   4  -3   92.47    3.49
  -9   4   3   93.74    3.80
   9  -4  -3   89.32    3.89
   9  -4   3   97.00    3.75
   9   4  -3  104.12    4.12
   9   4   3   96.22    3.79
   4   9  -3   95.07    3.69
   4   9   3   94.78    3.60
  -4   9   3   95.93    3.65
   9   4   3   95.61    3.70
  -9   4   3   94.74    3.71
   9   4  -5  100.55    7.25
   4   9  -5  114.60    8.20
  -4   9  -5  101.59    7.24
   4   9   5   97.42    6.93
  -4   9   5  107.12    7.71
  -9   4  -5   92.78    6.54
  -9   4   5  101.10    7.26
   9  -4  -5  116.64    8.44
   9   4  -5   89.13    6.44
   9  -4   5  100.07    7.11
   4   9  -5  113.02    8.06
   9   4   5  107.52    7.71
   4   9   5  103.79    7.41
  -4   9   5  109.23    7.80
   9   4   5  114.21    8.14
  -9   4   5   98.86    7.13
   9   4  -7   55.58    1.52
   4   9  -7   51.80    1.06
  -4   9  -7   52.43    0.93
   4   9   7   51.13    1.07
  -4   9   7   51.33    1.40
  -9   4   7   53.06    1.67
   9  -4  -7   54.40    1.87
   9   4  -7   51.85    1.22
   4   9  -7   52.51    0.97
   4   9   7   54.97    1.19
  -4   9   7   56.23    1.33
   9   4   7   54.16    1.33
  -9   4   7   49.39    2.33
   9   4  -9   53.81    3.92
   4   9  -9   54.25    3.94
  -4   9  -9   50.60    3.51
   4   9   9   54.84    3.89
  -4   9   9   47.41    3.55
   9  -4  -9   51.07    4.45
   9   4  -9   49.19    3.54
   4   9   9   53.34    3.93
  -4   9   9   52.26    3.78
   9   4   9   50.50    3.64
  -9   4   9   51.48    4.37
   9  -4 -11   46.81    1.55
   9   4 -11   44.89    1.42
   4   9 -11   41.85    1.09
  -4   9  11   47.80    1.67
   4  -9 -11   49.97    1.55
   9  -4 -11   48.75    1.47
   9   4 -11   45.69    2.09
   4   9  11   45.48    1.43
  -4   9  11   46.88    1.40
   9   4  11   46.11    1.50
  -9   4  11   49.08    1.61
   9  -4 -13   28.54   12.67
   9   4 -13   27.52   11.96
   4   9 -13   27.90   12.11
  -4   9  13   29.09   12.65
   4  -9 -13   32.42   14.21
   9  -4 -13   32.05   13.92
   9   4 -13   27.89   12.10
   4   9  13   25.99   12.23
  -4   9  13   30.04   13.07
   9   4  13   25.52   11.11
  -9   4  13   26.93   11.73
   9   5   0   84.25    3.36
   5   9   0   89.35    3.51
  -5   9   0   85.27    3.30
  -9   5   0   88.58    3.65
   9  -5   0   83.46    4.52
   9   5   0   86.98    3.42
   5   9   0   86.72    3.47
   5   9   0   77.34    2.95
  -5   9   0   84.03    3.16
   9   5   0   81.45    3.10
  -9   5   0   83.08    3.08
   9   5  -2   38.13    1.76
   5   9  -2   40.75    1.75
   9   5   2   41.94    1.79
   5   9   2   39.56    1.63
  -5   9  -2   38.67    1.56
  -5   9   2   37.83    1.73
  -9   5  -2   40.63    1.92
  -9   5   2   39.80    1.74
   5  -9   2   38.31    1.87
   9  -5  -2   39.62    2.04
   9  -5   2   38.72    1.81
   9   5  -2   38.79    1.79
   9   5   2   41.80    1.79
   5   9  -2   37.34    1.69
   5   9   2   34.74    1.53
   5   9   2   40.03    1.88
  -5   9   2   39.74    1.58
   9   5   2   41.80    1.64
  -9   5   2   36.30    1.46
   9   5  -4   16.23    1.36
   5   9  -4   19.63    1.61
   9   5   4   19.97    1.48
  -5   9  -4   21.16    1.65
   5   9   4   19.52    1.49
  -5   9   4   20.10    1.63
  -9   5  -4   19.41    1.45
  -9   5   4   21.31    2.89
   5  -9   4   18.24    1.57
   9  -5  -4   20.25    1.83
   9  -5   4   18.49    1.48
   9   5  -4   19.35    2.56
   5   9  -4   21.09    1.93
   9   5   4   20.96    1.70
   5   9   4   18.21    1.42
  -5   9   4   19.56    1.53
   9   5   4   20.05    1.53
  -9   5   4   19.35    2.03
   9   5  -6   25.31    2.56
   5   9  -6   26.51    1.20
  -5   9  -6   26.52    0.56
   5   9   6   26.90    0.75
  -5   9   6   27.84    1.08
  -9   5   6   24.89    1.04
   9  -5  -6   26.52    1.44
   9   5  -6   28.96    0.98
   5   9  -6   26.10    1.18
   9   5   6   27.63    0.80
   5   9   6   29.83    0.84
  -5   9   6   27.64    0.86
   9   5   6   26.39    0.93
  -9   5   6   25.34    0.87
   9   5  -8   29.15    2.24
   5   9  -8   28.70    2.13
  -5   9  -8   28.96    2.03
   5   9   8   22.37    1.67
  -5   9   8   25.34    1.96
  -9   5   8   33.22    2.84
   5  -9  -8   29.37    2.34
   9  -5  -8   30.61    2.39
   9   5  -8   29.23    2.24
   5   9  -8   28.12    2.05
   5   9   8   24.26    1.87
  -5   9   8   29.13    2.19
   9   5   8   28.15    2.14
  -9   5   8   30.64    2.40
   9   5 -10   25.57    2.46
   5   9 -10   29.35    2.98
  -5   9  10   26.30    2.49
   5  -9 -10   26.69    2.76
   9  -5 -10   26.84    2.97
   9   5 -10   26.47    2.44
   5   9  10   29.20    2.80
  -5   9  10   24.31    2.35
   9   5  10   23.11    3.47
  -9   5  10   21.79    4.84
   9  -5 -12    8.75    2.93
   9   5 -12    4.84    1.51
   5   9 -12    6.28    1.57
  -5   9  12    3.52    2.04
   5  -9 -12    5.80    1.61
   9  -5 -12    5.44    1.56
   9   5 -12    4.42    1.32
   5   9  12    4.94    0.91
  -5   9  12    5.92    2.03
   9   5  12    5.38    1.96
  -9   5  12    3.17    1.34
   9   6  -1   70.70    2.83
   9   6   1   71.46    2.90
   6   9  -1   76.21    3.08
   6   9   1   75.59    2.95
  -6   9  -1   71.68    2.86
  -6   9   1   73.84    2.94
  -9   6  -1   75.79    3.08
  -9   6   1   75.34    3.09
   6  -9  -1   73.23    3.29
   6  -9   1   67.72    2.82
   9  -6  -1   72.17    3.36
   9  -6   1   76.68    3.33
   9   6  -1   73.95    3.10
   9   6   1   69.91    2.86
   6   9  -1   76.40    3.09
   6   9   1   74.42    3.43
  -6   9  -1   70.07    2.64
   6   9   1   77.94    2.95
  -9   6  -1   73.64    2.73
   9   6   1   75.94    2.86
  -6   9   1   74.48    2.82
  -9   6   1   73.17    2.77
   9   6  -3   45.86    3.49
   6   9  -3   48.63    3.57
   9   6   3   50.61    3.63
   6   9   3   46.75    3.38
  -6   9  -3   46.01    3.32
  -6   9   3   48.57    3.61
  -9   6  -3   50.39    3.63
  -9   6   3   55.47    4.33
   6  -9  -3   54.04    4.24
   6  -9   3   45.14    3.45
   9  -6  -3   46.60    3.51
   9  -6   3   44.42    3.40
   9   6  -3   43.55    3.36
   6   9  -3   47.68    3.50
   9   6   3   49.63    3.92
   6   9   3   48.91    3.50
   9   6   3   49.52    3.55
  -6   9   3   47.63    3.43
  -9   6   3   49.09    3.54
   9   6  -5   31.48    2.16
   6   9  -5   30.80    2.05
  -6   9  -5   31.82    2.00
   6   9   5   30.17    1.92
  -6   9   5   31.00    2.20
  -9   6   5   29.45    2.14
   6  -9  -5   35.11    5.09
   9  -6  -5   28.88    2.06
   9   6  -5   33.15    2.19
   6   9  -5   30.68    1.98
   9   6   5   28.93    1.96
   6   9   5   31.64    2.11
  -6   9   5   28.07    1.86
   9   6   5   29.61    2.24
  -9   6   5   29.97    1.98
   9   6  -7   46.11    2.95
   6   9  -7   47.97    3.04
  -6   9  -7   46.93    2.77
   6   9   7   50.28    3.05
  -6   9   7   52.11    3.29
  -9   6   7   45.60    3.04
   6  -9  -7   50.12    3.30
   9  -6  -7   48.13    3.10
   6   9  -7   46.94    2.97
   6   9   7   47.55    2.97
   9   6   7   45.38    2.87
  -6   9   7   49.09    3.09
  -9   6   7   44.74    2.82
   9   6  -9   28.20    2.68
   6   9  -9   24.75    2.31
  -6   9   9   25.83    2.61
  -9   6   9   27.93    2.88
   6  -9  -9   27.46    3.03
   9  -6  -9   25.63    2.54
   9   6  -9   25.60    2.73
   6   9  -9   24.34    2.19
   6   9   9   27.73    2.61
  -6   9   9   27.83    2.66
   9   6   9   25.72    2.60
  -9   6   9   28.25    4.01
   9   6 -11   16.73    7.14
   6   9 -11   15.43    7.06
  -6   9  11   15.25    7.27
   6  -9 -11   16.47    7.13
   9  -6 -11   18.00    7.68
   9   6 -11   15.72    6.70
   6   9  11   15.12    6.48
  -6   9  11   15.00    7.09
   9   6  11   13.62    5.84
  -9   6  11   12.29    6.19
   9  -6 -13   14.94    3.77
   9   6 -13   16.77    2.38
   6   9 -13   12.34    3.06
  -6   9  13   11.74    3.65
   6  -9 -13   14.83    2.19
   9  -6 -13   10.25    2.39
   6   9  13   11.50    3.53
  -6   9  13    9.10    2.67
   9   6  13    9.97    3.49
  -9   6  13   10.66    4.51
   9   7   0  279.84   20.01
   7   9   0  288.93   17.23
  -7   9   0  274.46   19.51
  -9   7   0  287.83   17.38
   7  -9   0  293.78   17.77
   9  -7   0  278.73   20.06
   9   7   0  293.25   17.74
   7   9   0  305.72   18.44
   7   9   0  264.97   18.70
   9   7   0  254.35   17.96
  -7   9   0  279.80   19.85
  -9   7   0  297.53   17.63
   9   7  -2    9.28    1.73
   7   9  -2    8.73    2.21
   9   7   2    8.30    0.71
   7   9   2    8.08    0.73
  -7   9  -2    7.70    1.27
  -7   9   2    9.16    2.00
  -9   7  -2    7.61    1.09
  -9   7   2    8.86    2.04
   7  -9  -2    7.68    1.89
   7  -9   2    7.37    0.80
   9  -7  -2    8.47    1.89
   9  -7   2    8.49    2.10
   9   7  -2    7.36    1.78
   7   9  -2    7.81    0.84
   9   7   2    9.19    2.14
   7   9   2   10.11    2.26
  -9   7  -2    9.53    0.72
   7   9   2    7.33    0.61
   9   7   2    6.90    0.58
  -7   9   2    8.36    1.47
  -9   7   2    8.63    0.73
   9   7  -4  109.61    6.72
   7   9  -4  107.86    6.74
   9   7   4  103.36    6.24
   7   9   4  111.92    6.74
  -7   9  -4  102.10    6.33
  -9   7  -4  103.90    6.22
  -7   9   4  115.01    7.30
  -9   7   4  108.40    6.71
   7  -9  -4  111.04    7.25
   9  -7  -4  102.08    6.46
   9   7  -4  114.67    7.25
   7   9  -4  110.54    6.70
   9   7   4  106.16    6.53
   7   9   4  113.02    6.79
   9   7   4  103.76    6.26
  -7   9   4  107.99    6.69
  -9   7   4  108.82    6.57
   9   7  -6    5.35    1.06
   7   9  -6    5.21    1.13
  -7   9  -6    2.47    0.96
   7   9   6    4.70    1.22
  -7   9   6    4.96    2.72
  -9   7   6    5.27    1.07
   7  -9  -6    4.86    1.07
   9  -7  -6    5.78    1.09
   9   7  -6    5.16    1.47
   7   9  -6    5.74    0.81
   7   9   6    4.22    1.06
   9   7   6    3.91    0.54
  -7   9   6    4.72    1.35
  -9   7   6    3.97    0.54
   9   7  -8  144.06    9.98
   7   9  -8  138.64    9.57
  -7   9   8  137.96    9.63
  -9   7   8  128.70    8.89
   9  -7  -8  129.97   10.42
   9   7  -8  131.28    8.96
   7   9  -8  131.78    9.08
   7   9   8  134.35    9.20
   9   7   8  138.70    9.53
  -7   9   8  130.01    8.99
  -9   7   8  137.94    9.64
   9   7 -10    4.91    1.15
   7   9 -10    5.26    1.02
  -7   9  10    5.34    1.34
  -9   7  10    4.71    1.45
   7  -9 -10    4.92    1.19
   9  -7 -10    6.30    1.38
   9   7 -10    3.83    1.50
   7   9  10    5.54    1.09
   9   7  10    6.35    0.75
  -7   9  10    3.99    1.05
  -9   7  10    3.78    1.03
   9   7 -12   43.98   19.16
   7   9 -12   39.61   17.17
  -7   9  12   36.42   15.83
   7  -9 -12   41.78   18.13
   9  -7 -12   42.78   18.58
   7   9  12   37.69   16.58
   9   7  12   34.16   14.94
  -7   9  12   39.58   17.19
  -9   7  12   39.38   17.10
   9   8  -1   23.58    1.59
   8   9  -1   23.40    1.59
   9   8   1   23.34    1.65
   8   9   1   22.45    1.52
  -8   9  -1   20.35    1.37
  -8   9   1   22.01    1.59
  -9   8  -1   20.32    1.54
  -9   8   1   18.51    1.38
   8  -9  -1   23.15    2.12
   8  -9   1   21.18    1.64
   9  -8  -1   21.57    1.68
   9  -8   1   20.85    1.75
   9   8  -1   23.31    2.46
   8   9  -1   22.14    1.75
   9   8   1   24.36    3.05
   8   9   1   21.40    1.49
   8   9  -1   22.10    1.40
   9   8  -1   21.90    1.38
  -8   9  -1   19.65    1.23
  -9   8  -1   20.55    1.26
   8   9   1   21.08    1.37
   9   8   1   22.18    1.40
  -8   9   1   22.55    1.42
  -9   8   1   19.74    1.24
   9   8  -3    7.62    1.74
   8   9  -3    9.19    2.11
   9   8   3    8.81    0.67
   8   9   3    9.02    0.73
  -8   9  -3    9.59    0.76
  -9   8  -3    8.02    0.82
  -8   9   3    8.05    0.81
  -9   8   3    8.91    2.57
   8  -9  -3    9.89    2.02
   9  -8  -3   10.45    2.00
   8  -9   3    9.74    0.96
   9  -8   3    7.34    1.96
   9   8  -3    8.82    2.24
   8   9  -3   10.01    1.54
   9   8   3    8.82    2.70
   8   9   3   10.48    2.73
   8   9   3    7.79    0.63
   9   8   3    8.63    0.66
  -8   9   3    8.23    0.66
  -9   8   3    8.69    0.71
   9   8  -5   15.46    3.71
   8   9  -5   15.31    1.32
   9   8   5   12.82    0.88
   8   9   5   11.54    1.25
  -8   9  -5   11.57    0.79
  -9   8  -5   12.43    0.95
  -8   9   5   14.89    1.40
  -9   8   5   14.78    2.32
   8  -9  -5   14.19    3.72
   9  -8  -5   13.16    1.30
   9   8  -5   11.55    2.66
   8   9  -5   16.21    1.64
   9   8   5   15.35    2.96
   8   9   5   14.26    1.02
   9   8   5   14.19    1.04
  -8   9   5   13.00    0.94
  -9   8   5   11.28    2.72
   9   8  -7   15.74    3.23
   8   9  -7   15.87    2.86
  -8   9   7   14.64    3.57
  -9   8   7   15.23    3.35
   8  -9  -7   15.31    1.54
   9  -8  -7   17.25    2.10
   9   8  -7   15.86    1.43
   8   9  -7   16.10    1.26
   8   9   7   15.99    1.34
   9   8   7   14.42    1.22
  -8   9   7   14.03    2.04
  -9   8   7   14.90    1.29
   9   8  -9   11.39    2.96
   8   9  -9   13.09    3.62
  -8   9   9   13.72    3.61
  -9   8   9   10.07    2.32
   8  -9  -9   11.81    3.06
   9  -8  -9   11.23    1.97
   9   8  -9   11.58    2.21
   8   9  -9   10.67    1.76
   8   9   9   12.57    3.05
   9   8   9   13.95    1.32
  -8   9   9   10.57    3.10
  -9   8   9    7.98    1.81
   9   8 -11    8.31    1.90
   8   9 -11    7.36    1.69
  -8   9  11    5.95    1.80
  -9   8  11    8.51    1.72
   8  -9 -11    7.68    2.86
   9  -8 -11    8.46    2.85
   9   8 -11    6.85    1.85
   8   9  11    7.60    2.15
   9   8  11    7.48    0.84
  -8   9  11    7.22    1.70
  -9   8  11    6.94    1.72
   9   9   0   86.82    1.68
  -9   9   0   94.90    1.42
   9  -9   0   86.81    1.89
   9   9   0   89.33    1.47
   9   9   0   88.79    0.86
  -9   9   0   92.18    1.22
   9   9  -2    0.47    0.33
   9   9   2    0.46    0.53
  -9   9  -2    0.32    0.33
  -9   9   2    0.48    0.54
   9  -9  -2    1.28    0.91
   9  -9   2    0.27    0.28
   9   9  -2    0.89    0.47
   9   9   2    0.29    0.43
  -9   9  -2    0.37    0.12
   9   9   2    0.90    0.24
  -9   9   2    0.48    0.16
   9   9  -4  119.09    7.01
   9   9   4  114.06    6.63
  -9   9  -4  130.43    7.76
  -9   9   4  119.53    7.09
   9  -9  -4  113.57    6.86
   9   9  -4  116.98    6.89
   9   9   4  114.58    6.75
   9   9   4  119.15    6.95
  -9   9   4  118.38    6.91
   9   9  -6    0.67    0.43
  -9   9   6    0.40    0.51
   9  -9  -6    0.37    0.72
   9   9  -6   -0.04    0.57
   9   9   6    0.82    0.74
  -9   9   6    0.25    0.71
   9   9  -8  102.38    9.02
  -9   9   8  107.56    9.52
   9  -9  -8   99.31    9.04
   9   9  -8   95.28    8.39
   9   9   8  109.72    9.78
  -9   9   8  111.67    9.85
   9   9 -10    5.49    1.37
  -9   9  10    7.64    2.45
   9  -9 -10    5.52    2.17
   9   9 -10    4.00    0.97
   9   9  10    4.29    1.28
  -9   9  10    4.47    1.32
   9   9 -12   72.78   40.66
  -9   9  12   73.67   41.16
   9  -9 -12   72.67   40.59
   9   9  12   71.56   39.97
  -9   9  12   65.74    8.67
  10   0   0  252.40    7.93
   0  10   0  251.74    7.63
  10   0   0  244.85    7.52
   0  10   0  240.19    7.11
  10   0  -2    3.70    1.02
  10   0   2    2.59    0.87
   0  10  -2    3.27    0.63
   0  10   2    2.63    0.79
  10   0  -2    3.40    0.68
  10   0   2    3.54    1.04
   0  10   2    3.69    0.70
  10   0  -4  252.05   17.95
   0  10  -4  217.91   15.43
   0  10   4  225.16   15.91
  10   0  -4  226.53   16.06
  10   0   4  217.48   15.38
   0  10   4  218.83   15.44
  10   0   4  222.09   15.71
  10   0  -6    2.47    0.89
   0  10  -6    2.55    0.62
   0  10   6    2.85    0.76
  10   0  -6    2.62    0.60
  10   0   6    1.99    0.57
   0  10   6    1.85    0.59
  10   0   6    1.65    0.76
 -10   0   6    1.59    0.49
  10   0  -8   88.78    6.20
   0  10  -8   86.88    5.91
   0  10   8   79.36    5.51
  10   0  -8   81.21    5.62
   0  10   8   86.74    6.08
  10   0   8   86.49    6.05
 -10   0   8   81.25    6.08
  10   0 -10    2.91    0.91
   0  10 -10    1.10    0.38
   0  10  10    1.28    0.92
  10   0 -10    1.05    0.70
   0  10  10    2.60    0.68
  10   0  10    0.27    0.43
 -10   0  10    1.12    0.58
  10   0 -12   65.26    7.08
   0  10 -12   58.09    6.19
   0  10  12   56.32    6.07
  10   0 -12   62.76    6.72
   0  10  12   69.39    7.46
  10   0  12   64.03    7.00
 -10   0  12   60.22    6.63
  10  -1  -1  109.74    4.51
  10  -1   1  105.88    4.21
  10   1  -1  107.31    4.22
  10   1   1  111.77    4.30
   1  10  -1  109.90    4.16
  -1  10  -1  114.30    4.36
   1  10   1  117.83    4.98
  -1  10   1  113.05    4.29
  10  -1  -1  105.84    4.28
  10  -1   1  104.91    4.51
  10   1  -1  109.81    4.31
  10   1   1  108.16    4.52
  10   1  -1  101.86    3.75
   1  10   1  112.19    4.26
  -1  10   1  112.09    4.20
  10   1   1  107.00    3.96
  10  -1  -3   91.49    3.95
  10   1  -3   95.61    3.88
  10   1   3   91.15    3.44
   1  10  -3   99.55    3.83
  -1  10  -3   95.93    3.68
   1  10   3   89.52    3.44
  -1  10   3   92.82    3.57
  10  -1  -3   99.60    3.98
  10   1  -3   89.87    3.98
  10  -1   3   89.63    3.55
  10   1   3   87.80    3.49
   1  10   3   93.91    3.58
  -1  10   3   94.83    3.59
  10   1   3   93.81    3.57
  10  -1  -5   85.32    5.50
  10   1  -5   85.43    5.34
   1  10  -5   85.98    6.16
  -1  10  -5   81.74    4.95
   1  10   5   86.20    5.24
  -1  10   5   80.13    5.74
  10  -1  -5   91.92    6.69
  10   1  -5   82.34    5.94
  10  -1   5   83.99    6.03
  10   1   5   85.16    6.50
   1  10   5   82.88    5.97
  -1  10   5   87.55    5.34
  10   1   5   81.61    5.87
  10  -1   5   85.73    6.23
 -10   1   5   82.75    6.32
  10  -1  -7   52.19    1.55
  10   1  -7   56.86    3.89
   1  10  -7   58.91    1.18
  -1  10  -7   58.45    0.97
   1  10   7   56.44    1.16
  -1  10   7   56.23    1.18
  10  -1  -7   56.07    2.57
  10   1  -7   57.91    4.32
  10   1   7   51.28    2.06
   1  10   7   60.40    1.16
  -1  10   7   56.35    1.30
  10   1   7   52.84    1.79
  10  -1   7   52.25    2.96
 -10   1   7   55.39    3.61
  10  -1  -9   55.59    4.06
  10   1  -9   53.92    3.98
   1  10  -9   53.14    3.74
  -1  10  -9   52.14    3.67
   1  10   9   50.54    3.67
  -1  10   9   61.60    4.43
  10  -1  -9   56.94    4.09
  10   1  -9   51.51    3.84
   1  10   9   58.20    4.29
  -1  10   9   53.24    3.83
  10   1   9   54.22    3.95
  10  -1   9   56.51    4.12
 -10   1   9   52.02    3.89
  10   1 -11   35.84    4.01
   1  10 -11   33.16    0.90
  -1  10 -11   35.24    0.94
   1  10  11   30.64    1.34
  -1  10  11   34.78    1.63
  10  -1 -11   35.71    1.92
  10   1 -11   34.98    2.52
   1  10  11   39.25    1.82
  -1  10  11   32.77    1.22
  10   1  11   32.44    1.29
  10  -1  11   33.23    1.39
 -10   1  11   36.23    1.86
 -10  -1  11   37.50    1.55
  10  -1 -13   19.28    8.77
  10   1 -13   17.41    8.58
   1  10 -13   19.54    8.48
  -1  10 -13   20.69    8.98
   1  10  13   18.55    8.09
  -1  10  13   17.15    8.37
  10  -1 -13   22.89    9.99
  10   1 -13   19.83    8.63
   1  10  13   21.90   10.61
  -1  10  13   20.49    9.58
  10   1  13   23.70   10.36
  10  -1  13   17.87    7.86
 -10   1  13   22.33    9.75
  10  -2   0   69.04    2.82
  10   2   0   69.14    2.72
   2  10   0   68.77    2.67
  -2  10   0   74.16    2.89
  10  -2   0   73.15    3.03
  10   2   0   75.48    3.07
   2  10   0   68.70    2.63
  -2  10   0   73.24    2.78
  10   2   0   69.38    2.57
  10  -2   2   82.19    3.21
  10   2  -2   84.93    3.47
  10   2   2   89.78    3.42
   2  10  -2   87.42    3.49
  -2  10  -2   86.57    3.37
   2  10   2   90.32    3.50
  -2  10   2   83.72    3.25
  10  -2  -2   83.84    3.46
  10  -2   2   83.13    3.34
  10   2  -2   90.78    3.62
  10   2   2   82.71    3.24
   2  10   2   81.82    3.45
  -2  10   2   81.41    3.08
  10   2   2   82.09    3.09
  10  -2  -4   86.90    6.34
  10   2  -4   93.22    6.76
   2  10  -4   98.14    7.01
  -2  10  -4  104.87    7.46
   2  10   4   99.72    7.09
  -2  10   4  113.83    8.21
  10  -2  -4  100.38    7.32
  10   2  -4   95.98    6.91
  10  -2   4   95.73    6.81
  10   2   4  103.66    7.41
   2  10  -4  102.75    7.58
   2  10   4  103.98    7.40
  -2  10   4  100.25    7.13
  10   2   4  102.55    7.31
 -10   2   4  109.27    7.89
  10   2  -6   75.00    1.59
   2  10  -6   74.79    1.62
  -2  10  -6   78.06    1.14
  -2  10   6   80.22    1.48
  10  -2  -6   80.33    1.53
  10   2  -6   79.81    1.41
  10  -2   6   73.52    1.35
  10   2   6   77.54    1.46
   2  10  -6   81.02    1.17
   2  10   6   72.86    1.23
  -2  10   6   78.96    1.32
  10   2   6   77.56    1.45
 -10   2   6   72.80    1.54
  10  -2   6   76.48    2.65
  10  -2  -8   53.56    3.88
  10   2  -8   61.69    4.40
   2  10  -8   57.44    4.01
  -2  10  -8   58.70    4.01
   2  10   8   60.89    4.28
  -2  10   8   59.38    4.33
  10  -2  -8   65.87    4.69
  10   2  -8   61.82    4.33
   2  10   8   60.82    4.28
  -2  10   8   61.41    4.32
  10   2   8   53.55    4.47
 -10   2   8   62.13    4.44
  10  -2   8   59.42    4.23
  10  -2 -10   33.47    3.20
  10   2 -10   35.61    3.39
   2  10 -10   33.61    3.08
  -2  10 -10   31.41    2.85
   2  10  10   30.26    2.91
  -2  10  10   30.52    2.85
  10  -2 -10   28.45    2.67
  10   2 -10   33.26    3.11
   2  10  10   30.37    2.88
  -2  10  10   29.04    5.28
  10   2  10   28.28    2.79
 -10   2  10   29.54    2.89
  10  -2  10   31.98    3.38
  10  -2 -12   38.93    4.34
  10   2 -12   35.56    3.94
   2  10 -12   33.48    3.64
  -2  10 -12   31.66    3.43
   2  10  12   32.37    3.62
  -2  10  12   33.21    3.64
  10  -2 -12   34.37    3.87
  10   2 -12   31.83    3.48
   2  10  12   35.05    3.96
  -2  10  12   32.74    4.85
  10   2  12   27.88    3.19
 -10   2  12   35.65    4.07
  10  -2  12   30.74    3.70
  10   3  -1   88.00    3.97
  10   3   1   89.71    3.48
   3  10  -1   87.42    3.40
   3  10   1   87.56    3.40
  -3  10  -1   87.12    3.36
  -3  10   1   82.64    3.19
 -10   3   1   86.23    4.26
 -10   3  -1   90.52    3.59
  10  -3  -1   83.50    3.48
  10  -3   1   85.87    3.66
  10   3  -1   83.94    3.32
  10   3   1   83.85    3.46
  10   3  -1   87.73    3.31
   3  10   1   83.82    3.19
  -3  10   1   88.91    3.36
  10   3   1   84.55    3.16
  10   3  -3   67.28    4.89
   3  10  -3   66.74    4.82
  10   3   3   67.44    4.79
  -3  10  -3   67.38    4.84
   3  10   3   70.49    5.04
  -3  10   3   65.77    4.75
 -10   3   3   68.13    4.99
  10  -3  -3   63.98    4.72
  10   3  -3   61.63    4.49
  10  -3   3   61.46    4.45
  10   3   3   65.29    5.09
   3  10  -3   65.59    4.80
   3  10   3   50.28    3.64
  -3  10   3   64.35    4.60
  10   3   3   65.06    4.65
 -10   3   3   62.68    4.82
  10   3  -5   30.55    2.19
   3  10  -5   28.37    1.98
  -3  10  -5   26.88    1.72
   3  10   5   26.04    1.72
  -3  10   5   26.90    1.84
  10  -3  -5   27.92    2.10
  10   3  -5   29.20    2.14
  10  -3   5   26.19    1.70
  10   3   5   30.20    2.02
   3  10  -5   26.05    1.74
   3  10   5   26.52    1.74
  -3  10   5   28.47    1.89
  10   3   5   27.81    1.81
 -10   3   5   28.63    2.01
  10   3  -7   46.26    2.94
   3  10  -7   55.92    3.45
  -3  10  -7   53.67    3.20
   3  10   7   54.93    3.31
  -3  10   7   51.19    3.39
  10  -3  -7   54.59    4.18
  10   3  -7   55.39    3.39
   3  10  -7   60.08    3.56
  10   3   7   52.80    3.19
   3  10   7   54.11    3.33
  -3  10   7   51.35    3.15
  10   3   7   51.73    3.18
 -10   3   7   52.79    3.34
  10  -3  -9   35.83    3.36
  10   3  -9   35.32    3.50
   3  10  -9   36.37    3.25
  -3  10  -9   37.80    3.33
   3  10   9   40.22    3.67
  -3  10   9   35.10    3.27
  10  -3  -9   33.52    3.13
  10   3  -9   35.55    3.26
   3  10   9   41.28    3.74
  -3  10   9   37.41    3.42
  10   3   9   36.01    3.37
 -10   3   9   35.24    3.30
  10  -3   9   39.21    3.69
  10  -3 -11   36.58    1.58
  10   3 -11   40.36    3.61
   3  10 -11   35.23    1.29
  -3  10 -11   36.98    0.90
   3  10  11   36.45    1.24
  -3  10  11   36.38    2.75
  10  -3 -11   37.03    1.24
  10   3 -11   36.87    1.07
   3  10  11   38.71    1.37
  -3  10  11   39.83    1.34
  10   3  11   40.06    1.48
 -10   3  11   37.45    1.54
  10  -3  11   34.80    2.28
  10  -3 -13   12.28    4.14
  10   3 -13   12.35    3.92
   3  10 -13   11.30    2.66
  -3  10  13   10.27    2.88
   3 -10 -13   11.89    1.95
  10  -3 -13   11.57    1.75
  10   3 -13   13.16    1.93
   3  10  13   10.46    2.85
  -3  10  13    9.05    4.09
  10   3  13   10.52    3.24
 -10   3  13   10.14    4.18
  10   4   0    8.17    1.62
   4  10   0    6.13    0.44
  -4  10   0    6.40    1.67
 -10   4   0    8.15    0.75
  10  -4   0    6.35    2.10
  10   4   0    7.41    1.22
   4  10   0    7.25    1.86
   4  10   0    7.26    0.40
  -4  10   0    5.82    0.88
  10   4   0    6.77    0.32
  10   4  -2  115.67    4.62
  10   4   2  106.15    7.52
   4  10  -2   93.62    3.88
   4  10   2  109.44    4.16
  -4  10  -2  112.64    4.29
  -4  10   2  113.24    8.19
 -10   4  -2  108.67    4.26
 -10   4   2  110.53    4.48
  10  -4  -2  113.21    4.62
  10  -4   2  115.48    8.35
  10   4  -2   99.99    4.31
  10   4   2  114.26    4.60
   4  10  -2  106.06    4.40
 -10   4  -2  106.09    3.90
   4  10   2  115.49    4.35
  -4  10   2  104.35    3.99
  10   4   2  112.66    4.42
 -10   4   2  114.74    4.33
  10   4  -4    4.72    1.30
   4  10  -4    5.56    1.45
  -4  10  -4    5.94    1.22
   4  10   4    5.39    0.50
  -4  10   4    6.61    1.88
 -10   4   4    8.46    1.94
 -10   4  -4    4.59    0.53
  10  -4  -4    6.08    1.38
  10   4  -4    5.18    1.31
  10  -4   4    6.00    0.52
  10   4   4    5.91    1.79
   4  10  -4    7.01    1.18
   4  10   4    6.41    1.59
  -4  10   4    8.30    1.07
  10   4   4    5.19    0.49
 -10   4   4    4.86    1.42
  10   4  -6   88.35    1.83
   4  10  -6   89.92    1.33
  -4  10  -6   89.66    1.07
   4  10   6   90.76    1.23
  -4  10   6   87.45    3.57
 -10   4   6   92.22    1.79
  10  -4  -6   87.76    2.02
  10   4  -6   87.91    1.54
   4  10  -6   88.46    1.45
  10   4   6   87.33    1.37
   4  10   6   89.59    1.28
  -4  10   6   85.93    1.38
  10   4   6   88.48    1.35
 -10   4   6   89.70    2.90
  10   4  -8    7.28    2.75
   4  10  -8    8.34    1.51
  -4  10  -8    7.68    0.64
   4  10   8    8.36    0.76
  -4  10   8    9.91    1.01
  10  -4  -8    8.49    1.92
  10   4  -8    9.04    1.21
   4  10  -8    8.48    1.64
   4  10   8    9.55    0.98
  -4  10   8    7.67    1.73
  10   4   8    6.38    0.98
 -10   4   8    9.71    1.94
  10  -4 -10   76.38    6.65
  10   4 -10   67.89    4.99
   4  10 -10   67.16    5.03
  -4  10 -10   70.65    4.97
   4  10  10   70.72    5.06
  -4  10  10   74.31    5.64
  10  -4 -10   70.02    5.12
  10   4 -10   78.98    5.63
   4  10  10   72.15    5.23
  -4  10  10   64.05    4.79
  10   4  10   60.74    4.47
 -10   4  10   65.94    4.99
  10  -4 -12    0.22    0.62
  10   4 -12    0.63    0.47
   4  10 -12    1.27    0.54
  -4  10  12    0.77    0.61
   4 -10 -12    1.21    0.59
  10  -4 -12    0.86    0.40
   4  10  12    0.61    0.78
  -4  10  12    0.28    0.47
  10   4  12    0.63    0.64
 -10   4  12   -0.20    0.91
  10   5  -1   41.33    3.10
  10   5   1   48.32    3.52
   5  10  -1   35.08    3.13
   5  10   1   40.84    2.98
  -5  10  -1   42.88    3.14
  -5  10   1   46.78    3.55
 -10   5  -1   42.93    3.15
 -10   5   1   43.65    3.25
  10  -5  -1   43.83    3.29
  10  -5   1   40.15    3.10
  10   5  -1   41.13    3.09
  10   5   1   43.96    3.29
   5  10  -1   43.33    3.42
   5  10   1   41.02    3.05
  10   5  -1   43.24    3.08
  -5  10  -1   41.47    2.97
   5  10   1   42.58    3.07
  -5  10   1   44.53    3.18
  10   5   1   42.83    3.05
 -10   5  -1   43.23    3.05
 -10   5   1   39.57    2.83
  10   5  -3   41.28    3.10
   5  10  -3   37.29    2.85
  10   5   3   36.76    2.66
   5  10   3   38.37    2.80
  -5  10  -3   37.43    2.74
  -5  10   3   35.95    2.66
 -10   5  -3   32.89    2.42
 -10   5   3   36.37    3.36
   5 -10   3   39.33    3.12
  10  -5  -3   38.51    2.94
  10  -5   3   34.31    2.62
  10   5  -3   39.30    3.69
  10   5   3   38.80    3.13
   5  10  -3   39.45    2.92
   5  10   3   40.47    2.94
  -5  10   3   36.88    2.75
  10   5   3   37.23    2.70
 -10   5   3   38.22    2.81
  10   5  -5   51.91    1.30
   5  10  -5   52.39    1.13
  -5  10  -5   52.23    0.89
   5  10   5   52.44    0.94
  -5  10   5   57.54    1.39
 -10   5   5   55.95    4.21
  10  -5  -5   54.53    3.81
   5  10  -5   57.27    1.25
  10   5   5   52.55    1.11
   5  10   5   52.44    1.21
  10   5   5   57.11    1.14
 -10   5   5   54.11    1.84
  10   5  -7   27.73    2.17
   5  10  -7   26.63    2.00
  -5  10  -7   26.44    1.85
   5  10   7   25.98    1.92
  -5  10   7   28.13    2.22
 -10   5   7   27.18    2.24
  10  -5  -7   21.07    2.30
  10   5  -7   23.18    1.74
   5  10  -7   23.21    3.21
  10   5   7   27.26    2.04
   5  10   7   25.76    1.95
  -5  10   7   27.91    2.15
  10   5   7   22.34    1.71
 -10   5   7   28.13    2.50
  10   5  -9   21.97    2.42
   5  10  -9   23.48    2.20
  -5  10  -9   18.16    1.65
   5  10   9   20.62    1.92
  -5  10   9   20.65    2.24
   5 -10  -9   21.56    2.34
  10  -5  -9   22.79    2.23
  10   5  -9   23.59    2.41
   5  10   9   22.24    2.20
  -5  10   9   23.14    2.29
  10   5   9   21.54    2.08
 -10   5   9   24.72    2.98
  10  -5 -11   16.08    7.05
  10   5 -11   14.90    6.78
   5  10 -11   14.20    6.58
  -5  10  11   17.87    8.60
   5 -10 -11   14.80    6.37
  10  -5 -11   19.00    8.13
  10   5 -11   15.41    6.57
   5  10  11   16.18    6.92
  -5  10  11   14.62    6.67
  10   5  11   13.80    5.91
 -10   5  11   11.91    6.74
  10  -5 -13    9.78    6.37
  10   5 -13   10.84    6.71
   5  10 -13   10.82    6.28
  -5  10  13   11.24    6.69
   5 -10 -13   12.47    7.77
  10  -5 -13   12.10    7.43
   5  10  13   14.56    8.28
  -5  10  13    8.65    5.42
  10   5  13   11.43    7.45
 -10   5  13    8.60    5.85
  10   6   0  128.15    9.30
   6  10   0  123.99    8.83
  -6  10   0  131.76    9.45
 -10   6   0  127.00    9.04
   6 -10   0  128.59    9.38
  10  -6   0  126.32    9.07
  10   6   0  124.48    8.87
   6  10   0  125.67    9.08
   6  10   0  116.36    8.23
  10   6   0  136.64    9.64
  -6  10   0  130.98    9.23
 -10   6   0  123.48    8.70
  10   6  -2   53.20    3.39
   6  10  -2   54.55    3.37
  10   6   2   54.33    3.33
   6  10   2   55.97    3.43
  -6  10  -2   49.59    3.04
  -6  10   2   53.36    3.36
 -10   6  -2   55.45    3.45
 -10   6   2   51.33    3.26
   6 -10   2   56.10    3.67
  10  -6  -2   48.94    3.31
  10  -6   2   52.02    3.31
  10   6  -2   50.05    3.16
  10   6   2   50.15    3.21
   6  10  -2   55.59    3.52
   6  10   2   53.45    3.48
 -10   6  -2   48.17    2.87
   6  10   2   49.85    3.02
  -6  10   2   53.67    3.25
  10   6   2   53.95    3.45
 -10   6   2   49.68    3.04
  10   6  -4   37.57    1.09
   6  10  -4   35.81    1.00
   6  10   4   39.04    0.83
  -6  10  -4   37.07    0.78
  -6  10   4   41.05    1.10
 -10   6  -4   39.46    0.66
 -10   6   4   34.89    2.95
  10  -6  -4   35.91    1.33
  10  -6   4   36.57    0.96
  10   6  -4   37.77    1.75
   6  10  -4   38.41    0.95
  10   6   4   39.15    1.08
   6  10   4   38.73    0.76
  -6  10   4   38.67    1.10
  10   6   4   37.88    0.84
 -10   6   4   39.16    1.42
  10   6  -6   28.08    1.95
   6  10  -6   30.08    1.94
  -6  10  -6   28.61    1.76
   6  10   6   31.24    1.95
  -6  10   6   31.03    2.03
 -10   6   6   28.60    2.07
   6 -10  -6   29.68    2.16
  10  -6  -6   31.47    2.29
  10   6  -6   31.29    2.11
   6  10  -6   33.86    2.12
  10   6   6   31.99    2.06
   6  10   6   29.76    2.12
  -6  10   6   31.90    2.07
  10   6   6   34.18    2.15
 -10   6   6   30.36    1.98
  10   6  -8   32.63    3.11
   6  10  -8   31.80    2.92
  -6  10  -8   30.31    2.67
   6  10   8   28.16    2.57
  -6  10   8   31.20    2.98
 -10   6   8   31.02    3.23
   6 -10  -8   24.91    2.38
  10  -6  -8   33.53    5.82
   6  10  -8   31.79    3.49
   6  10   8   34.74    3.19
  -6  10   8   32.97    3.09
  10   6   8   31.76    2.95
 -10   6   8   33.07    3.22
  10   6 -10   23.49    1.08
   6  10 -10   26.00    0.92
  -6  10  10   23.53    2.14
   6 -10 -10   23.64    1.31
  10  -6 -10   23.92    1.01
  10   6 -10   27.68    1.65
   6  10  10   22.52    0.98
  -6  10  10   20.95    3.64
  10   6  10   26.43    1.10
 -10   6  10   25.22    1.34
  10   6 -12    6.07    3.27
   6  10 -12    6.85    3.32
  -6  10  12    8.08    4.14
   6 -10 -12    6.51    3.34
  10  -6 -12    8.17    3.79
  10   6 -12    5.69    2.96
   6  10  12    6.10    3.20
  -6  10  12    4.88    2.57
  10   6  12    6.11    3.10
 -10   6  12    4.42    2.24
  10   7  -1   39.33    2.49
  10   7   1   39.34    2.49
   7  10  -1   38.18    2.47
   7  10   1   41.34    2.59
  -7  10  -1   37.79    2.44
  -7  10   1   38.87    2.48
 -10   7  -1   40.75    2.58
 -10   7   1   38.00    3.19
   7 -10  -1   42.74    3.15
   7 -10   1   37.86    3.04
  10  -7  -1   38.75    2.83
  10  -7   1   41.69    2.91
  10   7  -1   38.83    2.86
  10   7   1   39.45    2.66
   7  10  -1   40.94    2.70
   7  10   1   38.86    2.67
   7  10  -1   47.98    2.96
  10   7  -1   39.45    2.42
  -7  10  -1   36.45    2.21
   7  10   1   38.98    2.38
  10   7   1   41.19    2.52
 -10   7  -1   38.38    2.30
  -7  10   1   40.93    2.49
 -10   7   1   39.70    2.42
  10   7  -3   41.69    1.01
   7  10  -3   42.22    1.31
  10   7   3   44.94    0.80
   7  10   3   43.26    0.95
  -7  10  -3   40.17    0.81
  -7  10   3   45.31    1.42
 -10   7  -3   39.55    1.04
 -10   7   3   44.32    1.95
   7 -10  -3   39.76    1.39
   7 -10   3   42.42    1.67
  10  -7  -3   43.73    1.73
  10  -7   3   42.68    1.43
  10   7  -3   43.12    2.20
   7  10  -3   47.41    1.15
  10   7   3   43.51    2.05
   7  10   3   44.91    1.28
   7  10   3   40.56    0.98
  10   7   3   43.13    0.76
  -7  10   3   43.87    0.77
 -10   7   3   43.25    0.91
  10   7  -5   30.98    2.09
   7  10  -5   32.35    2.08
   7  10   5   29.02    1.82
  -7  10  -5   29.26    1.82
  -7  10   5   30.82    2.08
 -10   7   5   30.90    2.18
   7 -10  -5   36.52    4.33
  10  -7  -5   32.66    2.41
  10   7  -5   31.97    2.17
   7  10  -5   31.80    2.20
  10   7   5   33.73    2.56
   7  10   5   29.34    1.87
  10   7   5   31.91    2.04
  -7  10   5   33.07    2.07
 -10   7   5   27.69    1.78
  10   7  -7   30.26    2.34
   7  10  -7   32.96    2.45
  -7  10  -7   33.23    2.33
   7  10   7   28.87    2.11
  -7  10   7   31.87    2.43
 -10   7   7   31.89    2.59
   7 -10  -7   35.01    3.16
  10  -7  -7   36.74    2.89
  10   7  -7   35.06    2.57
   7  10  -7   33.01    3.81
   7  10   7   33.01    2.43
  10   7   7   35.19    2.59
  -7  10   7   32.98    2.80
 -10   7   7   35.81    3.44
  10   7  -9   25.00    2.02
   7  10  -9   21.14    3.04
  -7  10   9   24.63    4.75
 -10   7   9   24.63    2.33
   7 -10  -9   21.85    2.00
  10  -7  -9   22.63    2.85
  10   7  -9   25.92    2.66
   7  10  -9   25.64    2.20
   7  10   9   24.89    2.45
  10   7   9   25.06    2.35
  -7  10   9   27.56    2.31
 -10   7   9   20.89    1.80
  10   7 -11   26.69    1.14
   7  10 -11   28.19    0.97
  -7  10  11   31.44    1.78
   7 -10 -11   32.61    2.36
  10  -7 -11   28.54    1.41
  10   7 -11   31.24    1.24
   7  10  11   30.26    1.33
  10   7  11   29.64    1.23
  -7  10  11   26.46    1.15
 -10   7  11   31.09    1.46
  10   8   0   36.01    1.10
   8  10   0   33.65    0.77
  -8  10   0   32.47    0.87
 -10   8   0   34.53    1.20
   8 -10   0   35.61    1.20
  10  -8   0   35.10    1.52
  10   8   0   33.82    1.07
   8  10   0   34.20    0.93
   8  10   0   35.98    0.58
  10   8   0   35.05    0.92
  -8  10   0   33.92    0.48
 -10   8   0   33.65    0.47
  10   8  -2    1.73    0.58
   8  10  -2    2.19    0.59
  10   8   2    1.13    0.27
   8  10   2    2.08    0.61
  -8  10  -2    1.44    0.43
 -10   8  -2    1.72    0.45
 -10   8   2    2.16    0.75
   8 -10  -2    1.53    0.68
   8 -10   2    1.70    0.51
  10  -8  -2    3.06    0.57
  10  -8   2    2.13    0.55
  10   8  -2    1.78    0.56
   8  10  -2    2.09    0.49
  10   8   2    2.06    0.52
   8  10   2    2.39    0.86
  -8  10  -2    1.53    0.41
 -10   8  -2    1.27    0.28
   8  10   2    1.32    0.48
  10   8   2    1.55    0.39
  -8  10   2    1.34    0.40
 -10   8   2    1.38    0.41
  10   8  -4   79.14    4.78
   8  10  -4   77.05    5.22
  10   8   4   73.47    4.32
   8  10   4   78.04    4.64
  -8  10  -4   76.24    4.50
 -10   8  -4   75.96    4.47
  -8  10   4   76.13    4.83
 -10   8   4   77.81    4.72
   8 -10  -4   80.51    6.02
  10  -8  -4   72.60    5.37
  10   8  -4   75.92    4.65
   8  10  -4   77.13    4.73
  10   8   4   75.73    4.60
   8  10   4   85.48    5.04
  10   8   4   78.23    4.63
  -8  10   4   78.55    4.65
 -10   8   4   79.67    4.76
  10   8  -6    0.56    0.44
   8  10  -6    1.20    0.39
  -8  10  -6    1.05    0.48
   8  10   6    0.70    0.18
  -8  10   6    1.08    0.72
 -10   8   6    1.31    0.37
   8 -10  -6   -0.25    0.86
  10  -8  -6    1.64    0.45
  10   8  -6    0.39    0.43
   8  10  -6    1.20    0.57
  10   8   6    1.70    0.37
   8  10   6    0.62    0.35
  10   8   6    0.54    0.50
 -10   8   6    2.49    0.61
  10   8  -8   55.59    5.03
   8  10  -8   44.44    4.10
  -8  10   8   63.23    5.88
 -10   8   8   55.36    5.11
   8 -10  -8   63.64    5.81
  10  -8  -8   56.22    5.17
  10   8  -8   61.29    5.49
   8  10  -8   55.46    5.12
   8  10   8   62.19    5.54
  10   8   8   57.54    5.14
  -8  10   8   60.81    5.43
 -10   8   8   65.26    5.87
  10   8 -10    0.99    0.45
   8  10 -10    0.62    0.33
  -8  10  10    1.38    1.06
 -10   8  10    1.80    0.75
   8 -10 -10    1.71    1.16
  10  -8 -10    2.57    0.60
   8  10  10    0.56    0.40
  10   8  10    0.63    0.88
 -10   8  10    0.45    0.68
  10   8 -12   52.22   29.16
   8  10 -12   49.87   27.84
  -8  10  12   48.98   27.35
   8 -10 -12   48.98   27.36
  10  -8 -12   50.66   28.32
   8  10  12   50.74   28.35
  10   8  12   53.72   30.01
  -8  10  12   55.31   30.90
 -10   8  12   52.02   29.07
  10   9  -1   55.15    3.42
   9  10  -1   57.38    3.74
  10   9   1   54.66    3.28
   9  10   1   57.77    3.67
  -9  10  -1   49.02    3.10
  -9  10   1   58.02    4.12
 -10   9  -1   59.63    3.60
 -10   9   1   53.78    3.41
   9 -10  -1   55.60    3.63
   9 -10   1   48.87    3.32
  10  -9  -1   56.81    4.20
  10  -9   1   53.74    3.81
  10   9  -1   53.54    3.42
   9  10  -1   57.98    3.52
  10   9   1   59.99    3.70
   9  10   1   52.34    3.29
   9  10  -1   53.70    3.21
  10   9  -1   53.87    3.17
  -9  10  -1   55.86    3.25
   9  10   1   57.46    3.38
 -10   9  -1   55.09    3.22
  10   9   1   56.26    3.31
  -9  10   1   54.52    3.28
 -10   9   1   53.54    3.26
  10   9  -3   47.77    2.99
   9  10  -3   47.39    3.05
  10   9   3   49.47    2.95
   9  10   3   47.64    3.14
  -9  10  -3   48.94    3.04
 -10   9  -3   50.01    3.00
  -9  10   3   45.84    3.13
 -10   9   3   46.93    2.97
   9 -10  -3   54.68    3.66
  10  -9  -3   46.96    4.58
  10   9  -3   44.26    3.19
   9  10  -3   47.00    2.87
  10   9   3   48.61    3.88
   9  10   3   49.60    3.15
   9  10   3   48.32    3.00
  10   9   3   50.79    3.04
  -9  10   3   48.98    2.94
 -10   9   3   47.22    2.83
  10   9  -5   30.49    2.27
   9  10  -5   33.61    2.54
   9  10   5   28.13    2.02
  -9  10  -5   29.19    2.08
  -9  10   5   32.06    2.51
 -10   9   5   31.81    2.49
   9 -10  -5   29.16    2.60
  10  -9  -5   30.86    2.58
  10   9  -5   30.24    2.27
   9  10  -5   30.64    2.28
  10   9   5   31.45    2.32
   9  10   5   27.86    2.37
  10   9   5   32.54    2.37
  -9  10   5   31.99    2.37
 -10   9   5   30.87    2.26
  10   9  -7   41.66    3.80
   9  10  -7   51.72    4.67
  -9  10   7   42.59    4.30
 -10   9   7   43.03    4.13
   9 -10  -7   43.94    4.10
  10  -9  -7   44.06    4.16
  10   9  -7   47.72    4.29
   9  10  -7   40.26    4.17
   9  10   7   43.85    3.94
  10   9   7   45.52    4.11
  -9  10   7   43.93    3.98
 -10   9   7   39.74    3.61
  10   9  -9   25.14   10.70
   9  10  -9   22.71    9.67
  -9  10   9   23.41   10.02
 -10   9   9   22.00    9.40
   9 -10  -9   23.04   10.53
  10  -9  -9   22.07    9.44
  10   9  -9   21.69    9.51
   9  10  -9   16.99    7.67
   9  10   9   24.79   10.55
  10   9   9   21.22    9.07
  -9  10   9   22.02    9.60
 -10   9   9   18.58    8.91
  10   9 -11   10.46    2.44
   9  10 -11   13.43    2.38
  -9  10  11    9.44    3.25
 -10   9  11   11.48    3.57
   9 -10 -11   12.96    2.77
  10  -9 -11   12.14    3.07
   9  10  11   13.79    2.01
  10   9  11   15.07    2.20
  -9  10  11    8.92    2.43
 -10   9  11    9.19    3.02
  10  10   0  111.32    7.63
 -10  10   0  110.54    7.50
  10 -10   0  105.50    7.35
  10  10   0  107.89    7.38
  10  10   0  112.91    7.64
 -10  10   0  115.41    7.73
  10  10  -2   71.16    4.90
  10  10   2   71.10    4.97
 -10  10  -2   70.74    4.86
 -10  10   2   65.93    4.65
  10 -10  -2   70.77    5.18
  10 -10   2   65.05    4.59
  10  10  -2   69.11    4.76
  10  10   2   67.89    5.03
 -10  10  -2   63.15    4.31
  10  10   2   70.94    4.81
 -10  10   2   69.48    4.71
  10  10  -4   34.83    2.62
  10  10   4   32.33    2.28
 -10  10  -4   31.14    2.22
 -10  10   4   31.22    3.43
  10 -10  -4   34.50    2.81
  10  10  -4   35.71    2.62
  10  10   4   35.73    2.71
  10  10   4   33.00    2.34
 -10  10   4   32.41    2.34
  10  10  -6   47.69    4.30
 -10  10   6   48.79    4.47
  10  10  -6   45.53    4.08
  10  10   6   45.36    4.09
 -10  10   6   45.87    4.14
  10  10  -8   38.94    1.19
 -10  10   8   37.42    1.25
  10 -10  -8   39.49    1.49
  10  10  -8   42.43    1.04
  10  10   8   43.02    1.39
 -10  10   8   41.04    1.30
  10  10 -10   26.16   11.36
 -10  10  10   18.30    8.74
  10 -10 -10   19.47    9.11
  10  10 -10   18.56    8.47
  10  10  10   21.43    9.33
 -10  10  10   19.35    8.81
  11   0  -1  171.52   12.24
  11   0   1  176.57   12.53
   0  11  -1  175.28   12.39
   0  11   1  172.56   12.30
  11   0  -1  170.07   12.12
  11   0   1  171.47   12.20
   0  11  -1  207.06   14.69
   0  11   1  178.74   12.63
  11   0  -3  126.74    9.22
   0  11  -3  128.40    9.13
   0  11   3  121.05    8.64
  11   0  -3  120.68    8.67
  11   0   3  128.03    9.17
   0  11   3  130.66    9.24
  11   0  -5  120.76    2.00
   0  11  -5  118.97    1.48
   0  11   5  112.15    1.61
  11   0   5  111.88    1.87
   0  11   5  111.90    1.24
  11   0  -7   79.84    5.72
   0  11  -7   82.51    5.60
   0  11   7   75.68    5.18
  11   0  -7   88.54    6.68
  11   0   7   76.95    5.26
   0  11   7   79.61    5.49
  11   0  -9   71.88    6.43
   0  11  -9   77.82    6.81
   0  11   9   78.80    6.96
  11   0  -9   73.20    6.67
   0  11   9   79.26    7.00
 -11   0   9   78.75    7.09
  11   0 -11   43.02   18.30
   0  11 -11   44.53   18.88
   0  11  11   37.95   16.11
  11   0 -11   39.29   16.72
   0  11  11   37.94   16.12
 -11   0  11   44.96   19.11
  11   0 -13   27.94    3.83
   0  11 -13   32.67    4.33
   0  11  13   30.08    4.12
  11   0 -13   28.13    3.78
   0  11  13   34.79    4.75
 -11   0  13   26.84    4.44
  11  -1   0   43.14    1.93
  11   1   0   38.13    1.69
   1  11   0   35.57    1.58
  -1  11   0   40.61    1.92
  11  -1   0   38.96    1.73
  11   1   0   39.35    1.76
   1  11   0   33.17    1.39
  -1  11   0   39.98    1.59
  11  -1  -2   40.99    3.12
  11   1  -2   47.39    3.60
  11  -1   2   42.37    3.19
  11   1   2   48.46    3.50
   1  11  -2   45.41    3.32
  -1  11  -2   44.58    3.28
   1  11   2   46.38    3.41
  -1  11   2   45.22    3.30
  11  -1  -2   41.58    3.15
  11   1  -2   47.68    3.65
  11  -1   2   47.40    3.49
  11   1   2   43.54    3.23
   1  11   2   47.70    3.41
  -1  11   2   38.26    2.76
  11  -1  -4   28.60    2.03
  11   1  -4   32.14    3.05
   1  11  -4   30.40    2.48
  -1  11  -4   32.29    2.07
  -1  11   4   30.91    2.01
  11  -1  -4   35.55    2.71
  11   1  -4   31.15    2.14
  11  -1   4   32.63    2.11
  11   1   4   29.62    1.94
   1  11   4   33.39    2.16
  -1  11   4   32.65    2.09
  11  -1  -6   23.89    1.74
  11   1  -6   25.52    3.35
   1  11  -6   24.65    2.36
  -1  11  -6   25.35    1.60
   1  11   6   25.30    1.64
  -1  11   6   24.45    1.60
  11  -1  -6   26.52    1.88
  11   1  -6   27.25    1.94
  11  -1   6   23.72    1.67
  11   1   6   24.98    1.74
   1  11   6   25.63    1.68
  -1  11   6   26.30    1.74
 -11   1   6   24.60    2.04
  11  -1  -8   24.44    2.14
  11   1  -8   28.44    2.30
   1  11  -8   26.60    1.96
  -1  11  -8   28.25    2.05
   1  11   8   28.03    2.21
  -1  11   8   27.63    2.17
  11  -1  -8   24.13    2.20
  11   1  -8   28.37    2.35
   1  11   8   27.41    2.07
  -1  11   8   27.66    2.15
 -11   1   8   26.96    2.54
  11  -1 -10   16.45    2.77
  11   1 -10   12.88    1.42
   1  11 -10   12.91    1.09
  -1  11 -10   12.45    2.06
   1  11  10   16.06    3.48
  -1  11  10   16.86    3.55
  11  -1 -10   12.39    1.39
  11   1 -10   14.41    2.19
   1  11  10   16.11    3.60
  -1  11  10   12.89    2.29
 -11   1  10   13.49    1.36
  11  -1 -12   10.97    3.58
  11   1 -12   11.59    3.00
   1  11 -12   12.59    2.34
  -1  11 -12   13.56    0.77
   1  11  12   12.74    0.81
  -1  11  12    7.82    1.59
  11  -1 -12   11.88    2.49
  11   1 -12   10.62    0.82
   1  11  12   11.82    2.66
  -1  11  12   12.52    2.48
 -11   1  12   13.03    1.21
  11  -2  -1  103.87    7.47
  11  -2   1  102.16    7.36
  11   2  -1   97.00    6.96
  11   2   1  104.73    7.46
   2  11  -1  107.82    7.66
   2  11   1  102.75    7.31
  -2  11  -1  108.45    7.73
  -2  11   1  106.54    7.59
  11  -2  -1   99.67    7.21
  11  -2   1  103.51    7.45
  11   2  -1  103.27    7.44
  11   2   1  102.67    7.38
  -2  11  -1  118.44    8.38
   2  11   1  107.68    7.61
  -2  11   1  106.23    7.52
  11  -2  -3   76.71    5.67
  11   2  -3   72.08    5.25
   2  11  -3   82.61    5.92
  -2  11  -3   77.52    5.54
   2  11   3   80.12    5.77
  -2  11   3   76.95    5.52
  11  -2  -3   85.05    6.36
  11   2  -3   80.45    5.97
  11  -2   3   85.44    6.14
  11   2   3   76.80    5.57
   2  11   3   79.99    5.74
  -2  11   3   77.43    5.52
  11  -2  -5   42.04    1.52
  11   2  -5   43.19    1.42
   2  11  -5   37.85    0.86
  -2  11  -5   44.99    0.94
   2  11   5   41.22    0.90
  -2  11   5   44.34    1.16
  11  -2  -5   42.55    1.31
  11   2  -5   40.86    1.14
  11  -2   5   42.63    0.84
  11   2   5   38.92    0.95
   2  11   5   40.46    0.88
  -2  11   5   39.21    0.90
 -11   2   5   43.77    1.25
  11  -2  -7   62.52    5.98
  11   2  -7   60.00    4.28
   2  11  -7   60.08    4.23
  -2  11  -7   61.25    4.32
   2  11   7   56.71    3.94
  -2  11   7   60.93    4.26
  11  -2  -7   60.84    4.33
  11   2  -7   59.39    4.19
  11   2   7   55.96    3.91
   2  11  -7   63.83    4.38
   2  11   7   64.46    4.47
  -2  11   7   61.35    4.25
 -11   2   7   57.98    4.11
  11  -2  -9   31.46    3.06
  11   2  -9   33.13    3.14
   2  11  -9   31.63    2.91
  -2  11  -9   32.97    2.95
   2  11   9   31.00    2.83
  -2  11   9   34.58    3.16
  11  -2  -9   32.11    3.01
  11   2  -9   29.73    2.78
   2  11   9   34.08    3.18
  -2  11   9   36.49    3.37
  11   2   9   32.46    3.06
 -11   2   9   31.21    3.70
  11  -2 -11   35.90   15.29
  11   2 -11   38.31   16.31
   2  11 -11   34.93   14.83
  -2  11 -11   34.85   14.79
   2  11  11   31.67   13.45
  -2  11  11   34.84   14.83
  11  -2 -11   34.81   14.80
  11   2 -11   35.01   14.86
   2  11  11   31.60   13.49
  -2  11  11   32.82   13.96
 -11   2  11   38.22   16.35
  11  -2 -13   12.71    7.48
  11   2 -13   13.69    7.69
   2  11 -13   14.14    7.92
  -2  11  13   11.40    6.41
  11  -2 -13   13.73    7.69
  11   2 -13   11.70    6.82
   2  11  13   16.35    9.18
  -2  11  13   10.77    6.24
 -11   2  13    9.93    6.68
  11   3   0    2.65    0.79
   3  11   0    4.63    1.47
  -3  11   0    3.27    0.90
  11  -3   0    3.90    0.97
  11   3   0    2.83    0.77
   3  11   0    3.05    0.45
  -3  11   0    3.37    0.56
  11  -3   2  137.53    9.86
  11   3  -2  159.76   11.40
  11   3   2  153.79   10.90
   3  11  -2  147.22   10.44
  -3  11  -2  149.89   10.74
   3  11   2  152.37   10.83
  -3  11   2  151.83   10.78
  11  -3  -2  148.55   10.90
  11  -3   2  161.17   11.50
  11   3  -2  159.87   11.39
  11   3   2  134.85   10.01
   3  11   2  146.26   10.34
  -3  11   2  147.17   10.48
  11   3  -4   16.01    1.28
   3  11  -4   16.99    1.32
  -3  11  -4   17.52    1.20
   3  11   4   17.28    1.19
  -3  11   4   15.35    1.18
  11  -3  -4   15.27    1.95
  11   3  -4   16.83    2.78
  11  -3   4   16.90    1.23
  11   3   4   15.64    1.16
   3  11  -4   18.46    1.42
   3  11   4   15.89    1.15
  -3  11   4   22.58    1.51
 -11   3   4   18.23    1.60
  11   3  -6  125.85    7.57
   3  11  -6  125.24    7.57
  -3  11  -6  128.35    7.47
   3  11   6  123.70    7.22
  -3  11   6  130.41    7.74
  11  -3  -6  123.97    7.53
  11   3  -6  127.29    7.67
  11   3   6  117.68    6.94
   3  11  -6  130.05    7.56
   3  11   6  123.06    7.57
  -3  11   6  119.74    7.02
 -11   3   6  128.44    7.67
  11  -3  -8    2.41    0.62
  11   3  -8    1.38    1.18
   3  11  -8    1.69    0.55
  -3  11  -8    1.71    0.75
   3  11   8    1.80    0.62
  -3  11   8    1.45    0.51
  11  -3  -8    1.91    0.63
  11   3  -8    1.67    0.60
  11   3   8    0.87    0.92
   3  11   8    1.93    0.65
  -3  11   8    0.36    0.43
  11   3   8    0.51    0.55
 -11   3   8    0.45    0.60
  11  -3 -10   83.01    1.95
  11   3 -10   85.24    2.12
   3  11 -10   93.14    1.58
  -3  11 -10   88.11    1.22
   3  11  10   86.99    1.71
  -3  11  10   83.21    2.07
  11  -3 -10   93.70    3.64
  11   3 -10   91.17    2.15
   3  11  10   85.90    1.79
  -3  11  10   90.87    1.79
  11   3  10   86.48    1.99
 -11   3  10   90.12    2.16
  11  -3 -12    5.27    2.63
  11   3 -12    2.86    1.40
   3  11 -12    3.14    1.71
  -3  11  12    2.87    1.36
  11  -3 -12    2.90    1.38
  11   3 -12    2.72    1.54
   3  11  12    3.14    1.70
  -3  11  12    3.88    1.84
 -11   3  12    2.81    1.67
  11   4  -1   13.02    1.14
  11   4   1   14.45    1.14
   4  11  -1   15.08    1.20
   4  11   1   13.77    1.12
  -4  11  -1   14.54    1.20
  -4  11   1   15.70    1.26
 -11   4  -1   14.45    1.23
 -11   4   1   14.93    1.39
  11  -4  -1   16.32    1.55
  11  -4   1   12.95    1.15
  11   4  -1   12.90    1.27
  11   4   1   15.34    1.98
   4  11  -1   13.23    1.12
  -4  11  -1   13.25    1.00
  11   4  -1   13.82    1.02
   4  11   1   16.80    1.31
  -4  11   1   15.41    1.16
  11   4   1   13.76    1.07
  11   4  -3   11.37    0.98
   4  11  -3   13.66    1.47
  -4  11  -3   14.53    1.56
   4  11   3   14.77    1.07
  -4  11   3   13.83    1.11
 -11   4   3   15.30    1.23
  11  -4  -3   15.10    2.86
  11  -4   3   13.94    1.24
  11   4   3   14.78    1.11
   4  11  -3   12.50    1.81
   4  11   3   16.89    1.15
  -4  11   3   13.51    1.02
  11   4   3   15.88    1.09
 -11   4   3   11.96    1.05
  11   4  -5    8.79    2.93
   4  11  -5    7.95    0.54
  -4  11  -5    7.49    0.42
   4  11   5    7.70    0.45
  -4  11   5    8.53    0.62
  11  -4  -5    9.24    2.98
  11   4  -5    8.73    1.80
  11   4   5    8.13    0.52
   4  11  -5    8.56    1.44
   4  11   5    8.85    1.64
  -4  11   5    9.40    1.74
  11   4   5    7.10    2.17
 -11   4   5    5.72    1.86
  11   4  -7   13.72    1.27
   4  11  -7   13.51    2.58
  -4  11  -7   14.34    1.07
   4  11   7   13.52    1.13
  -4  11   7   14.89    1.38
  11  -4  -7   12.91    1.47
  11   4  -7   15.08    1.28
   4  11  -7   12.33    1.00
  11   4   7   12.93    1.27
   4  11   7   14.09    1.23
  -4  11   7   12.16    1.14
  11   4   7   12.28    2.61
 -11   4   7   11.74    1.09
  11  -4  -9    6.06    1.37
  11   4  -9    5.84    1.55
   4  11  -9    5.54    1.08
  -4  11  -9    5.34    1.05
   4  11   9    6.26    1.34
  -4  11   9    6.21    0.96
  11  -4  -9    6.82    2.16
  11   4  -9    5.34    1.54
   4  11   9    7.13    0.98
  -4  11   9    5.44    1.01
  11   4   9    3.33    2.32
 -11   4   9    5.30    1.73
  11  -4 -11   10.04    2.88
  11   4 -11    5.81    1.46
   4  11 -11    5.42    1.06
  -4  11  11    7.80    1.98
   4 -11 -11    5.73    1.83
  11  -4 -11    8.49    1.89
  11   4 -11    5.81    1.46
   4  11  11    6.58    1.66
  -4  11  11    5.71    1.53
  11   4  11    3.60    1.55
 -11   4  11    4.44    1.57
  11  -4 -13    1.53    0.95
  11   4 -13    1.69    1.11
   4  11 -13    1.78    1.08
  -4  11  13    3.19    2.07
   4 -11 -13    1.85    1.15
  11  -4 -13    0.42    1.08
  11   4 -13    2.67    1.78
   4  11  13    1.37    1.21
  -4  11  13    1.62    1.07
 -11   4  13    1.13    0.96
  11   5   0   30.68    2.04
  -5  11   0   27.14    1.84
 -11   5   0   25.60    1.71
  11  -5   0   28.36    2.03
  11   5   0   31.10    2.48
   5  11   0   28.30    2.18
   5  11   0   26.21    1.63
  -5  11   0   29.22    1.79
  11   5   0   27.68    1.70
  11   5  -2  113.11    6.87
  11   5   2  113.26    6.80
   5  11  -2  107.22    7.05
   5  11   2  111.54    6.75
  -5  11  -2  107.76    6.60
  -5  11   2  128.43    7.80
 -11   5  -2  111.00    6.83
 -11   5   2  109.79    6.71
  11  -5  -2  110.25    6.98
  11  -5   2  103.72    6.84
  11   5  -2  106.68    6.54
  11   5   2  105.08    6.43
   5  11  -2  105.16    6.61
  -5  11   2  112.44    6.73
  11   5   2  106.10    6.34
  11   5  -4    0.16    0.52
   5  11  -4    0.37    0.30
  -5  11  -4    0.57    0.31
   5  11   4    0.45    0.38
  -5  11   4    1.18    0.47
 -11   5   4    0.20    1.20
  11  -5  -4    1.47    0.67
  11  -5   4    1.32    0.59
  11   5  -4    1.85    0.54
  11   5   4    0.21    0.39
   5  11  -4    0.22    0.22
   5  11   4    0.96    0.29
  -5  11   4    0.65    0.37
  11   5   4    0.42    0.43
 -11   5   4    0.84    0.31
  11   5  -6   88.23    6.10
   5  11  -6   92.79    6.34
  -5  11  -6   75.57    5.11
   5  11   6   90.02    6.16
  -5  11   6   90.26    6.18
 -11   5   6   82.57    6.01
  11  -5  -6   84.91    6.27
  11   5  -6   89.98    6.17
   5  11  -6   89.18    6.05
  11   5   6   82.50    5.61
   5  11   6   90.02    6.24
  -5  11   6   83.95    5.79
  11   5   6   84.79    5.79
 -11   5   6   87.10    6.01
  11   5  -8   10.78    3.27
   5  11  -8   12.08    2.73
  -5  11  -8   12.89    1.22
   5  11   8   12.88    1.27
  -5  11   8   11.31    2.95
  11  -5  -8   11.01    2.93
  11   5  -8   12.73    1.36
   5  11  -8    9.79    1.84
   5  11   8   10.90    1.26
  -5  11   8   11.17    2.41
  11   5   8   10.56    1.16
 -11   5   8   11.38    3.27
  11   5 -10   71.98   30.55
   5  11 -10   62.91   26.77
  -5  11  10   69.48   29.49
   5 -11 -10   74.00   31.49
  11  -5 -10   65.86   27.96
  11   5 -10   69.13   29.32
   5  11  10   75.32   31.95
  -5  11  10   69.38   29.43
  11   5  10   66.66   28.28
 -11   5  10   78.28   33.22
  11  -5 -12    0.92    0.54
  11   5 -12    1.06    0.64
   5  11 -12    0.66    0.37
  -5  11  12    1.51    0.86
   5 -11 -12   -1.37    0.70
  11  -5 -12    0.44    0.21
  11   5 -12    0.21    0.31
   5  11  12    0.44    0.43
  -5  11  12   -0.36    0.77
  11   5  12   -0.05    0.64
 -11   5  12   -0.69    0.87
  11   6  -1   36.90    2.38
  11   6   1   38.00    2.42
   6  11  -1   35.16    2.83
   6  11   1   31.35    2.51
  -6  11  -1   36.07    2.37
  -6  11   1   41.10    2.73
 -11   6  -1   33.17    2.34
 -11   6   1   32.45    2.69
   6 -11   1   33.88    2.55
  11  -6  -1   35.22    2.49
  11  -6   1   34.85    3.22
  11   6  -1   34.28    2.27
  11   6   1   36.05    2.37
   6  11  -1   33.26    3.06
   6  11   1   35.63    2.38
   6  11  -1   37.23    2.29
  11   6  -1   31.29    1.97
  -6  11  -1   31.10    1.93
   6  11   1   33.82    2.08
  -6  11   1   35.50    2.17
  11   6   1   33.79    2.07
  11   6  -3   33.34    3.21
   6  11  -3   35.52    1.26
  11   6   3   32.52    0.70
   6  11   3   31.82    0.71
  -6  11  -3   33.08    0.77
  -6  11   3   31.51    0.93
 -11   6  -3   28.27    2.55
 -11   6   3   33.87    1.42
  11  -6  -3   31.00    1.32
  11  -6   3   31.01    0.93
  11   6  -3   33.70    0.98
  11   6   3   33.04    0.98
   6  11  -3   31.80    0.96
   6  11   3   31.76    0.67
  -6  11   3   34.84    0.85
  11   6   3   31.83    0.69
  11   6  -5   54.64    4.19
   6  11  -5   56.74    3.93
  -6  11  -5   58.74    3.50
   6  11   5   56.04    3.88
  -6  11   5   58.72    4.15
 -11   6   5   55.12    3.92
  11  -6  -5   57.79    4.36
  11   6  -5   55.71    3.43
   6  11  -5   54.51    3.53
  11   6   5   53.15    3.72
   6  11   5   55.36    3.88
  -6  11   5   59.94    4.13
  11   6   5   55.14    3.82
 -11   6   5   50.52    3.58
  11   6  -7   25.95    2.55
   6  11  -7   25.94    2.41
  -6  11  -7   23.71    2.12
   6  11   7   25.72    2.34
  -6  11   7   22.51    2.26
 -11   6   7   31.86    4.19
   6 -11  -7   26.75    2.63
  11  -6  -7   23.83    2.47
  11   6  -7   28.06    2.70
   6  11  -7   26.03    2.34
  11   6   7   27.27    2.63
   6  11   7   26.04    2.40
  -6  11   7   22.00    2.11
  11   6   7   25.91    2.42
 -11   6   7   24.83    2.61
  11   6  -9   30.59    1.21
   6  11  -9   29.23    1.22
  -6  11   9   34.00    1.34
   6 -11  -9   27.71    1.60
  11  -6  -9   33.68    2.49
  11   6  -9   34.61    2.69
   6  11   9   28.19    0.97
  -6  11   9   32.00    1.62
  11   6   9   29.19    1.08
 -11   6   9   28.68    1.18
   6  11 -11   23.70    0.93
  -6  11  11   23.79    4.06
   6 -11 -11   23.90    1.26
  11  -6 -11   24.21    1.34
  11   6 -11   26.25    1.21
   6  11  11   22.59    1.55
  -6  11  11   21.14    1.14
  11   6  11   19.55    1.10
 -11   6  11   19.52    1.13
  11   7   0    0.49    0.42
   7  11   0    1.33    0.34
  -7  11   0    1.47    0.81
 -11   7   0    1.47    0.60
   7 -11   0   -0.13    0.90
  11  -7   0    0.20    0.75
  11   7   0    1.35    0.55
   7  11   0    0.96    0.37
   7  11   0    0.87    0.15
  11   7   0    0.76    0.19
  -7  11   0    0.84    0.31
  11   7  -2   29.04    1.66
   7  11  -2   32.94    0.95
  11   7   2   33.94    0.76
   7  11   2   31.78    0.77
  -7  11   2   31.54    0.88
 -11   7  -2   35.19    0.94
 -11   7   2   32.91    3.27
   7 -11  -2   33.74    1.61
   7 -11   2   27.66    1.78
  11  -7  -2   30.88    1.37
  11  -7   2   30.76    1.80
  11   7  -2   28.43    1.06
  11   7   2   30.71    1.04
   7  11  -2   34.96    1.26
   7  11   2   30.37    0.97
  -7  11  -2   33.86    0.53
   7  11   2   31.48    0.61
  -7  11   2   31.48    0.93
  11   7   2   33.41    0.82
  11   7  -4   16.85    1.36
   7  11  -4   17.43    1.56
   7  11   4   16.50    1.12
  -7  11  -4   18.38    1.19
  -7  11   4   19.15    1.37
 -11   7   4   18.55    1.43
   7 -11  -4   15.83    1.33
  11  -7  -4   19.83    3.83
  11   7  -4   16.84    1.23
   7  11  -4   19.95    2.01
  11   7   4   18.36    1.69
   7  11   4   17.58    1.23
  -7  11   4   17.18    1.18
  11   7   4   16.80    1.11
 -11   7   4   15.76    2.51
  11   7  -6   22.40    2.93
   7  11  -6   20.70    2.19
  -7  11  -6   20.00    1.47
   7  11   6   19.84    1.48
  -7  11   6   21.24    1.79
 -11   7   6   16.45    1.42
   7 -11  -6   23.44    1.96
  11  -7  -6   21.15    4.14
  11   7  -6   22.66    1.74
   7  11  -6   24.06    1.85
  11   7   6   21.01    1.64
   7  11   6   22.65    1.81
  -7  11   6   24.54    1.90
  11   7   6   22.08    1.69
 -11   7   6   19.40    2.68
  11   7  -8    4.63    1.33
   7  11  -8    5.37    1.68
  -7  11   8    4.15    1.35
 -11   7   8    4.27    1.08
   7 -11  -8    7.08    2.43
  11  -7  -8    5.34    1.52
  11   7  -8    4.41    1.58
   7  11  -8    3.97    0.88
   7  11   8    7.33    1.41
  -7  11   8    4.06    1.37
  11   7   8    3.96    1.13
 -11   7   8    3.33    1.06
  11   7 -10    1.74    0.51
   7  11 -10    3.47    0.77
  -7  11  10    2.51    0.63
   7 -11 -10    3.29    0.97
  11  -7 -10    3.92    1.00
  11   7 -10    2.80    1.00
   7  11  10    3.97    1.39
  -7  11  10    3.91    1.29
  11   7  10    3.12    0.83
 -11   7  10    2.12    1.15
  11   7 -12   10.06    6.14
   7  11 -12    7.99    5.14
  -7  11  12    8.71    5.11
   7 -11 -12   10.84    7.28
  11  -7 -12   10.54    6.54
  11   7 -12    8.91    5.60
   7  11  12   11.62    7.02
  -7  11  12    6.65    4.17
  11   7  12    7.12    4.75
 -11   7  12    8.69    5.56
  11   8  -1   81.67    4.88
  11   8   1   70.55    4.24
   8  11  -1   70.15    4.99
   8  11   1   70.65    4.19
  -8  11  -1   71.70    4.44
  -8  11   1   71.07    4.28
 -11   8  -1   72.02    4.60
 -11   8   1   72.17    4.65
   8 -11  -1   69.80    4.52
   8 -11   1   72.41    4.98
  11  -8  -1   73.09    5.49
  11  -8   1   71.94    5.11
  11   8  -1   69.85    4.23
  11   8   1   69.78    4.21
   8  11  -1   73.06    4.41
   8  11   1   74.33    5.28
   8  11  -1   70.96    4.15
  11   8  -1   67.57    3.95
  -8  11  -1   75.24    4.37
   8  11   1   74.88    4.38
  11   8   1   70.93    4.13
  -8  11   1   73.95    4.32
  11   8  -3   86.59    5.94
   8  11  -3   87.11    6.14
  11   8   3   82.60    5.59
   8  11   3   79.35    5.66
  -8  11  -3   83.23    5.64
  -8  11   3   81.75    5.82
 -11   8  -3   80.66    5.48
 -11   8   3   91.64    7.33
   8 -11  -3   76.43    6.00
  11  -8  -3   80.19    6.71
  11   8  -3   79.35    5.53
   8  11  -3   87.58    6.01
  11   8   3   85.75    5.92
   8  11   3   82.16    5.65
   8  11   3   82.88    5.61
  11   8   3   79.50    5.40
  -8  11   3   78.84    5.47
  11   8  -5   53.21    3.80
   8  11  -5   50.33    3.72
   8  11   5   50.57    3.58
  -8  11  -5   48.53    3.39
  -8  11   5   48.50    3.86
 -11   8   5   51.52    3.73
   8 -11  -5   51.06    4.17
  11  -8  -5   49.40    4.25
  11   8  -5   51.76    3.74
   8  11  -5   50.04    3.58
  11   8   5   49.11    3.56
   8  11   5   48.40    3.39
  11   8   5   47.14    3.33
  -8  11   5   53.85    3.79
 -11   8   5   48.99    3.50
  11   8  -7   58.69    5.30
   8  11  -7   58.14    5.17
  -8  11   7   56.03    5.08
 -11   8   7   57.06    5.22
   8 -11  -7   52.82    4.85
  11  -8  -7   55.43    5.13
  11   8  -7   56.50    5.04
   8  11  -7   58.35    5.21
   8  11   7   51.12    4.63
  11   8   7   60.34    5.36
  -8  11   7   56.40    5.03
 -11   8   7   54.53    4.92
  11   8  -9   34.06   14.57
   8  11  -9   32.04   13.69
  -8  11   9   37.14   15.98
 -11   8   9   32.44   13.80
   8 -11  -9   33.19   14.11
  11  -8  -9   40.67   17.31
  11   8  -9   38.55   16.38
   8  11  -9   32.95   13.98
   8  11   9   33.02   14.19
  11   8   9   29.01   12.34
  -8  11   9   38.78   16.48
 -11   8   9   31.82   13.53
  11   8 -11   24.79    3.37
   8  11 -11   31.81    4.25
  -8  11  11   29.43    4.06
   8 -11 -11   29.77    4.54
  11  -8 -11   29.42    4.10
  11   8 -11   28.99    3.86
   8  11  11   25.22    5.94
  11   8  11   27.91    4.42
  -8  11  11   31.07    4.23
 -11   8  11   21.74    6.18
  11   9   0   59.32    4.10
   9  11   0   53.55    3.69
  -9  11   0   61.10    4.26
 -11   9   0   56.63    4.19
   9 -11   0   58.49    4.23
  11  -9   0   57.28    4.80
  11   9   0   57.56    4.02
   9  11   0   58.28    4.07
   9  11   0   59.68    4.06
  11   9   0   55.61    3.77
  -9  11   0   58.95    3.98
  11   9  -2   37.01    2.93
   9  11  -2   34.41    2.92
  11   9   2   33.40    2.87
   9  11   2   35.93    2.53
  -9  11  -2   35.48    2.50
  -9  11   2   36.51    2.66
 -11   9  -2   37.72    2.67
 -11   9   2   37.94    2.77
   9 -11  -2   32.43    2.49
  11  -9  -2   34.61    2.85
  11  -9   2   35.31    2.71
  11   9  -2   37.85    3.48
   9  11  -2   33.76    2.60
  11   9   2   34.36    3.04
   9  11   2   34.04    2.90
  11   9  -2   38.11    2.62
  -9  11  -2   31.11    2.12
   9  11   2   33.35    2.32
  11   9   2   34.19    2.36
  -9  11   2   34.83    2.45
  11   9  -4   16.70    1.42
   9  11  -4   17.72    2.65
   9  11   4   17.21    1.32
  -9  11  -4   14.62    1.11
  -9  11   4   14.97    1.41
 -11   9   4   16.28    1.50
   9 -11  -4   21.95    2.24
  11  -9  -4   17.35    1.99
  11   9  -4   16.81    1.34
   9  11  -4   15.09    3.04
  11   9   4   17.62    2.07
   9  11   4   17.16    1.33
  11   9   4   16.90    1.33
  -9  11   4   17.12    1.33
  11   9  -6   29.02    2.70
   9  11  -6   28.80    2.69
 -11   9   6   28.55    3.09
   9 -11  -6   29.55    3.36
  11  -9  -6   30.07    3.25
  11   9  -6   28.07    2.92
   9  11  -6   27.29    2.54
   9  11   6   26.71    2.45
  11   9   6   30.02    2.76
  -9  11   6   25.52    2.40
 -11   9   6   23.40    2.20
  11   9  -8   19.03    8.40
   9  11  -8   19.09    8.14
  -9  11   8   17.75    8.42
 -11   9   8   20.36    8.69
   9 -11  -8   23.81   10.49
  11  -9  -8   21.17    9.06
  11   9  -8   18.87    8.03
   9  11  -8   21.43    9.12
   9  11   8   21.32    9.08
  11   9   8   21.77    9.28
  -9  11   8   23.33    9.95
 -11   9   8   12.50    6.54
  11   9 -10   12.49    5.97
   9  11 -10   13.78    6.47
  -9  11  10    8.31    4.40
 -11   9  10    8.07    4.90
   9 -11 -10   11.93    5.53
  11  -9 -10   14.28    6.27
  11   9 -10    9.83    4.99
   9  11  10   11.34    5.53
  11   9  10    8.85    4.47
  -9  11  10    5.77    3.02
 -11   9  10    8.23    4.15
  11  10  -1   21.57    1.62
  10  11  -1   21.80    2.11
  11  10   1   22.31    1.67
  10  11   1   22.91    1.70
 -10  11  -1   22.23    1.68
 -10  11   1   23.74    1.85
 -11  10  -1   20.54    1.69
 -11  10   1   25.22    1.91
  10 -11  -1   21.38    1.94
  10 -11   1   22.99    2.07
  11 -10  -1   21.49    3.80
  11 -10   1   25.84    2.51
  11  10  -1   23.92    3.25
  10  11  -1   20.51    1.61
  11  10   1   22.14    3.76
  10  11   1   24.06    1.88
  10  11  -1   20.76    1.50
  11  10  -1   21.23    1.50
 -10  11  -1   23.41    1.63
  10  11   1   23.48    1.69
  11  10   1   20.98    1.85
 -10  11   1   20.64    1.47
  11  10  -3   40.51    3.92
  10  11  -3   46.18    4.14
  11  10   3   38.45    3.40
  10  11   3   39.55    3.48
 -10  11  -3   48.41    4.27
 -11  10  -3   37.23    3.37
 -10  11   3   38.09    3.42
 -11  10   3   39.16    3.68
  10 -11  -3   46.70    4.35
  11 -10  -3   44.23    4.61
  11  10  -3   41.28    3.87
  10  11  -3   47.63    4.25
  11  10   3   43.49    3.94
  10  11   3   43.77    4.27
 -10  11  -3   40.05    3.46
  10  11   3   42.03    3.81
  11  10   3   40.10    3.53
 -10  11   3   39.62    3.50
  11  10  -5   36.00    3.32
  10  11  -5   41.20    3.77
 -10  11   5   35.23    3.28
 -11  10   5   35.54    3.37
  10 -11  -5   31.99    3.10
  11 -10  -5   36.05    3.55
  11  10  -5   32.61    3.02
  10  11  -5   32.68    3.01
  11  10   5   38.51    3.54
  10  11   5   34.91    3.21
  11  10   5   33.97    3.05
 -10  11   5   32.44    2.95
  11  10  -7   31.94    4.33
  10  11  -7   29.41    4.48
 -10  11   7   35.70    1.66
 -11  10   7   27.11    2.05
  10 -11  -7   30.89    1.58
  11 -10  -7   28.89    1.43
  11  10  -7   30.03    0.93
  10  11  -7   30.45    0.88
  10  11   7   29.45    0.97
  11  10   7   26.53    0.89
 -10  11   7   28.39    1.08
  11  10  -9   12.02    1.82
  10  11  -9    8.72    1.94
 -10  11   9    9.04    1.62
 -11  10   9    9.98    1.34
  10 -11  -9   12.04    2.79
  11 -10  -9    9.15    2.08
  11  10  -9    6.83    2.15
  10  11  -9    7.73    2.68
  10  11   9    9.63    0.81
  11  10   9    5.82    2.28
 -10  11   9    4.58    1.79
  11  11   0    4.29    1.04
 -11  11   0    5.26    1.88
  11 -11   0    5.46    1.17
  11  11   0    6.00    1.61
  11  11   0    5.75    1.19
  11  11  -2  104.16    9.33
  11  11   2   96.46    8.36
 -11  11  -2  104.94    9.37
 -11  11   2   94.78    8.47
  11 -11  -2   96.91    9.28
  11  11  -2  107.35    9.44
  11  11   2   93.07    8.26
  11  11  -2   91.41    8.02
  11  11  -4    0.42    0.40
  11  11   4   -0.05    0.27
 -11  11   4    0.64    0.68
  11 -11  -4   -0.30    0.74
  11  11  -4    0.53    0.29
  11  11   4    0.40    0.53
  11  11   4    0.70    0.26
  11  11  -6   64.28    1.48
 -11  11   6   66.98    1.64
  11 -11  -6   61.32    4.14
  11  11  -6   67.14    1.47
  11  11   6   62.59    1.32
  11  11  -8    4.82    1.04
 -11  11   8    1.77    0.49
  11 -11  -8    4.77    1.32
  11  11  -8    2.42    0.94
  11  11   8    3.20    0.51
  11  11 -10   34.44   19.88
 -11  11  10   32.10   18.00
  11 -11 -10   35.72   20.00
  11  11  10   36.36   20.33
  12   0   0    0.89    0.43
   0  12   0    0.54    0.29
  12   0   0   -0.59    0.68
   0  12   0    0.46    0.18
  12   0  -2    5.10    1.81
   0  12  -2    5.52    1.10
   0  12   2    5.25    1.11
  12   0  -2    3.25    1.14
  12   0   2    5.44    1.51
   0  12   2    5.25    0.45
  12   0  -4   -0.35    0.69
   0  12  -4    0.61    0.43
   0  12   4    0.64    0.41
  12   0  -4    1.45    0.70
  12   0   4    0.60    0.34
   0  12   4    0.68    0.29
  12   0  -6    0.16    0.39
   0  12  -6    0.38    0.46
   0  12   6    0.34    0.24
  12   0  -6    0.44    0.41
  12   0   6   -0.20    0.41
   0  12   6    0.10    0.75
  12   0  -8    0.41    0.55
   0  12  -8    2.04    0.70
   0  12   8    1.96    0.61
  12   0  -8    2.10    0.59
   0  12   8    1.63    1.07
  12   0 -10    1.14    0.74
   0  12 -10    0.65    0.23
   0  12  10    1.40    0.40
  12   0 -10    1.23    0.35
   0  12  10    0.88    0.55
  12   0 -12    0.76    0.68
   0  12  12    0.71    0.57
  12   0 -12   -0.06    0.59
   0  12  12    0.77    0.91
  12  -1  -1  133.82    8.50
  12  -1   1  129.51    8.11
  12   1  -1  132.04    8.09
  12   1   1  123.04    7.46
   1  12  -1  141.66    8.49
  -1  12  -1  132.84    8.02
   1  12   1  134.63    8.18
  -1  12   1  131.78    7.95
  12  -1  -1  132.85    8.08
  12  -1   1  136.01    8.27
  12   1  -1  132.48    8.11
  12   1   1  137.14    8.35
  -1  12  -1  139.42    8.32
   1  12   1  126.65    7.55
  -1  12   1  139.34    8.32
  12  -1  -3  105.79    6.65
  12   1  -3   90.96    5.63
   1  12  -3   91.28    5.54
  -1  12  -3   97.77    6.02
   1  12   3   92.13    5.59
  -1  12   3   92.15    5.63
  12  -1  -3   86.61    5.40
  12   1  -3   99.44    6.20
  12  -1   3   92.30    5.68
  12   1   3   86.50    5.29
   1  12   3   70.29    4.26
  -1  12   3   90.76    5.74
  12  -1  -5   62.11    3.91
  12   1  -5   61.32    3.79
   1  12  -5   61.94    3.73
  -1  12  -5   62.26    3.73
   1  12   5   65.26    3.94
  -1  12   5   69.07    4.16
  12  -1  -5   61.81    4.16
  12   1  -5   66.92    4.27
  12  -1   5   63.20    3.81
  12   1   5   60.44    3.73
   1  12   5   59.34    3.54
  -1  12   5   62.81    3.75
  12  -1  -7   86.69    6.18
  12   1  -7   76.40    5.42
   1  12  -7   83.12    5.75
  -1  12  -7   79.32    5.56
   1  12   7   75.57    5.25
  -1  12   7   77.31    5.41
  12  -1  -7   86.56    6.13
  12   1  -7   76.16    5.41
  12   1   7   62.80    4.40
   1  12   7   80.44    5.58
  -1  12   7   80.88    5.62
  12  -1  -9   59.54    4.47
  12   1  -9   66.96    5.10
   1  12  -9   57.40    4.09
  -1  12  -9   59.94    4.26
   1  12   9   62.11    4.45
  -1  12   9   62.39    4.55
  12  -1  -9   60.02    4.61
  12   1  -9   55.07    3.97
   1  12   9   66.22    4.80
  -1  12   9   54.61    4.04
 -12   1   9   65.71    5.43
  12  -1 -11   40.18    1.46
  12   1 -11   37.72    1.64
   1  12 -11   41.33    1.03
  -1  12 -11   38.86    1.19
   1  12  11   38.59    1.53
  -1  12  11   34.07    1.29
  12  -1 -11   36.08    1.30
   1  12  11   40.11    1.69
  -1  12  11   36.59    1.34
 -12   1  11   32.85    1.48
  12  -2   0    4.38    1.70
  12   2   0    3.98    1.18
   2  12   0    4.47    0.49
  -2  12   0    4.67    1.25
  12  -2   0    5.26    2.22
  12   2   0    5.91    1.46
   2  12   0    4.38    1.16
  -2  12   0    4.63    0.67
  12  -2  -2  105.57    6.79
  12   2  -2  107.69    6.77
   2  12  -2  112.51    6.82
  -2  12  -2  110.76    6.71
   2  12   2  117.17    7.08
  -2  12   2  109.73    6.63
  12  -2  -2  109.30    7.33
  12  -2   2  100.80    6.15
  12   2  -2  108.86    6.72
  12   2   2  117.98    7.19
   2  12   2  112.08    6.72
  -2  12   2  108.65    6.50
  12  -2  -4   -1.14    0.70
  12   2  -4    0.16    0.60
   2  12  -4    0.28    0.24
  -2  12  -4    0.34    0.23
   2  12   4    0.09    0.29
  -2  12   4    0.78    0.50
  12  -2  -4    0.47    0.50
  12   2  -4    1.19    0.83
   2  12   4    0.49    0.69
  -2  12   4    0.25    0.47
  12  -2  -6   62.17    4.58
  12   2  -6   71.83    5.05
   2  12  -6   67.85    5.04
  -2  12  -6   67.20    4.58
   2  12   6   68.04    4.67
  -2  12   6   62.93    4.34
  12  -2  -6   51.14    3.74
  12   2  -6   70.78    4.96
  12   2   6   67.69    4.65
   2  12   6   65.62    4.68
  -2  12   6   67.26    4.63
 -12   2   6   62.34    5.78
  12  -2  -8    7.83    2.34
  12   2  -8    5.49    1.77
   2  12  -8    6.10    1.38
  -2  12  -8    5.76    1.38
   2  12   8    6.64    1.67
  -2  12   8    6.37    1.85
  12  -2  -8    5.81    1.64
  12   2  -8    6.19    1.89
  12   2   8    4.63    0.60
   2  12   8    7.09    1.55
  -2  12   8    7.44    0.94
 -12   2   8    5.01    1.58
  12  -2 -10   59.94   25.46
  12   2 -10   53.24   22.62
   2  12 -10   52.18   22.13
  -2  12 -10   54.37   23.05
   2  12  10   49.55   21.04
  -2  12  10   53.09   22.53
  12  -2 -10   53.03   22.52
  12   2 -10   51.30   21.77
   2  12  10   54.46   23.13
  -2  12  10   48.83   20.72
 -12   2  10   49.28   20.94
  12  -2 -12   -0.01    0.49
  12   2 -12    0.49    0.25
   2  12 -12    0.46    0.28
  -2  12 -12    0.12    0.15
   2  12  12    0.56    0.50
  -2  12  12    0.60    0.33
  12   2 -12    0.33    0.36
   2  12  12   -0.22    0.96
  -2  12  12    0.42    1.13
 -12   2  12   -0.96    0.88
  12  -3  -1    7.64    2.24
  12  -3   1    5.48    1.63
  12   3   1    6.17    0.71
   3  12  -1    5.01    0.53
   3  12   1    7.31    1.65
  -3  12  -1    6.73    0.98
  -3  12   1    7.49    0.67
  12  -3  -1    7.48    1.95
  12  -3   1    6.17    1.95
  12   3  -1    5.32    1.75
  12   3   1    7.65    1.58
   3  12  -1    5.56    1.21
  -3  12  -1    5.64    0.82
   3  12   1    6.55    0.97
  -3  12   1    6.97    0.54
  12   3  -3   14.59    2.57
   3  12  -3   11.83    0.60
  -3  12  -3   14.26    0.58
   3  12   3   13.11    0.56
  -3  12   3   10.73    1.24
  12  -3  -3   12.72    0.91
  12   3  -3   14.24    0.86
  12  -3   3   13.02    0.62
  12   3   3   13.74    0.67
   3  12   3   13.07    0.56
  -3  12   3   14.83    0.57
  12  -3  -5   19.05    3.38
  12   3  -5   14.96    1.29
   3  12  -5   16.22    1.16
  -3  12  -5   16.26    1.10
   3  12   5   14.52    1.03
  -3  12   5   16.42    1.18
  12  -3  -5   15.76    1.46
  12   3  -5   16.36    1.37
  12  -3   5   15.03    1.27
  12   3   5   14.55    1.06
   3  12  -5   18.66    2.22
   3  12   5   16.00    1.14
  -3  12   5   16.81    1.16
  12  -3  -7    7.35    1.52
  12   3  -7    9.52    3.19
   3  12  -7    7.62    1.48
  -3  12  -7    8.16    1.68
   3  12   7    7.41    1.97
  -3  12   7    8.21    1.73
  12  -3  -7    9.25    2.16
  12   3  -7    6.49    2.34
  12   3   7    7.09    0.67
   3  12   7   10.37    2.22
  -3  12   7    7.75    2.17
 -12   3   7    6.77    2.12
  12  -3  -9    8.89    2.74
  12   3  -9    6.60    2.17
   3  12  -9    5.84    1.34
  -3  12  -9    6.24    1.45
   3  12   9    6.18    1.56
  -3  12   9    7.07    2.01
  12  -3  -9    6.70    1.43
  12   3  -9    5.74    2.16
   3  12   9    6.43    1.63
  -3  12   9    6.69    1.64
 -12   3   9    5.41    2.07
  12  -3 -11   10.27    2.94
  12   3 -11    9.70    2.96
   3  12 -11   10.53    1.57
  -3  12 -11   10.45    1.82
   3  12  11   11.89    1.91
  -3  12  11   10.08    2.09
  12  -3 -11   10.35    1.91
  12   3 -11    9.16    1.75
   3  12  11   11.56    2.39
  -3  12  11   11.19    2.86
 -12   3  11    6.48    1.95
  12   4   0   25.41    1.94
   4  12   0   27.57    0.75
  -4  12   0   29.24    0.89
  12  -4   0   25.12    2.70
  12   4   0   30.42    1.07
   4  12   0   25.78    0.82
  -4  12   0   29.32    0.56
  12   4  -2  146.25    1.93
   4  12  -2  148.73    2.60
   4  12   2  144.50    1.58
  -4  12  -2  149.36    1.64
  -4  12   2  153.68    1.80
  12  -4  -2  146.26    4.31
  12  -4   2  145.20    3.51
  12   4  -2  147.04    2.35
  12   4   2  150.79    2.05
   4  12   2  142.24    1.10
  -4  12   2  147.95    1.38
  12   4  -4   -0.56    0.66
   4  12  -4    0.19    0.48
  -4  12  -4    0.73    0.36
   4  12   4    0.94    0.36
  -4  12   4    1.53    0.45
  12  -4  -4    1.90    0.49
  12   4  -4    0.29    0.54
  12  -4   4    1.22    0.44
  12   4   4    0.86    0.42
   4  12  -4    1.05    0.36
   4  12   4    2.14    0.39
  -4  12   4    1.49    0.48
  12   4  -6  125.42    8.74
   4  12  -6  131.01    9.31
  -4  12  -6  127.52    8.70
   4  12   6  125.14    8.57
  -4  12   6  125.52    8.74
  12  -4  -6  123.90    8.69
  12   4  -6  126.98    8.75
  12   4   6  125.69    8.70
   4  12  -6  131.20    8.96
   4  12   6  115.16    7.98
  -4  12   6  120.31    8.23
  12  -4  -8    3.22    0.92
  12   4  -8    5.32    1.68
   4  12  -8    2.70    0.91
  -4  12  -8    3.36    0.82
   4  12   8    3.70    2.26
  -4  12   8    3.53    0.93
  12  -4  -8    5.84    1.85
  12   4  -8    4.18    0.95
  12   4   8    3.82    1.17
   4  12   8    3.17    1.37
  -4  12   8    4.10    1.29
 -12   4   8    2.79    0.95
  12  -4 -10   88.04   37.49
  12   4 -10   90.36   38.36
   4  12 -10   92.15   39.06
  -4  12 -10   83.67   35.46
   4  12  10   84.55   35.85
  -4  12  10   83.73   35.50
  12  -4 -10   91.22   38.69
  12   4 -10   83.65   35.46
   4  12  10   98.61   41.82
  -4  12  10   84.54   35.86
  12  -4 -12    1.41    0.71
  12   4 -12    1.98    0.52
   4  12 -12    1.03    0.30
  -4  12  12    0.82    0.73
   4 -12 -12    0.65    0.30
  12  -4 -12    1.05    0.54
  12   4 -12    1.15    0.41
   4  12  12    1.53    0.54
  -4  12  12    1.53    0.99
 -12   4  12    1.41    1.13
  12   5  -1    7.78    1.81
  12   5   1    9.43    0.49
   5  12  -1    9.20    0.53
   5  12   1    7.82    1.03
  -5  12  -1    7.50    1.72
  -5  12   1    8.76    1.85
 -12   5   1    7.75    1.48
 -12   5  -1    7.53    0.75
  12  -5  -1    8.91    1.56
  12  -5   1    7.04    1.05
  12   5  -1    8.47    2.46
  12   5   1    7.54    2.01
   5  12  -1    8.44    1.73
   5  12  -1    7.21    1.35
  -5  12  -1    7.65    0.84
   5  12   1    6.67    1.34
  -5  12   1    7.65    0.35
  12   5  -3    6.94    2.55
   5  12  -3    8.78    2.44
   5  12   3    7.58    0.62
  -5  12  -3    6.90    2.10
  -5  12   3    8.05    1.43
 -12   5   3    8.59    2.44
  12  -5  -3   11.44    2.31
  12  -5   3    7.07    1.93
  12   5  -3    8.51    2.27
  12   5   3    9.77    1.81
   5  12  -3    6.83    0.62
   5  12   3    7.53    1.02
  -5  12   3    8.97    0.70
  12   5  -5   11.00    1.10
   5  12  -5    9.07    0.82
  -5  12  -5    8.87    2.00
   5  12   5   11.43    0.96
  -5  12   5   10.15    1.87
 -12   5   5    9.81    2.40
  12  -5  -5   10.99    1.17
  12   5  -5   13.25    3.30
  12   5   5   11.01    1.17
   5  12  -5   10.96    2.07
   5  12   5    9.20    1.17
  -5  12   5    9.76    2.20
  12   5  -7    8.82    2.34
   5  12  -7    6.70    1.73
  -5  12  -7    4.87    0.99
   5  12   7    7.44    0.92
  -5  12   7    5.68    1.59
  12  -5  -7    5.99    1.69
  12   5  -7    4.19    0.77
   5  12  -7    6.47    1.61
  12   5   7    5.87    0.72
   5  12   7    8.91    2.30
  -5  12   7    5.49    1.73
  12   5  -9    6.29    1.75
   5  12  -9    6.79    1.93
  -5  12  -9    5.03    1.22
   5  12   9    7.06    1.78
  -5  12   9    7.89    1.62
  12  -5  -9    6.52    1.23
  12   5  -9    6.07    1.74
   5  12   9    7.72    2.15
  -5  12   9    5.24    1.25
  12  -5 -11    5.95    3.01
  12   5 -11    6.78    3.95
   5  12 -11    6.21    3.08
  -5  12  11    7.69    3.64
   5 -12 -11    7.39    3.85
  12  -5 -11    6.38    3.37
  12   5 -11    5.14    2.88
   5  12  11    5.56    2.87
  -5  12  11    4.96    2.41
  12   6   0   16.91    1.17
   6  12   0   16.04    1.12
  -6  12   0   15.26    1.16
 -12   6   0   16.93    1.38
  12  -6   0   17.40    1.54
  12   6   0   16.81    1.32
   6  12   0   14.74    3.12
   6  12   0   14.72    2.00
  -6  12   0   14.82    1.00
  12   6  -2   77.20    4.64
  12   6   2   82.08    4.83
   6  12  -2   81.37    4.90
   6  12   2   82.34    4.87
  -6  12  -2   79.95    4.72
  -6  12   2   79.26    4.76
 -12   6  -2   75.48    4.48
 -12   6   2   77.79    4.91
   6 -12   2   77.28    4.84
  12  -6  -2   77.46    5.10
  12  -6   2   77.44    4.70
  12   6  -2   82.43    5.42
  12   6   2   80.75    4.84
   6  12  -2   82.48    4.92
  -6  12  -2   90.72    5.27
   6  12   2   79.58    4.65
  -6  12   2   83.05    4.97
  12   6  -4    2.61    0.57
   6  12  -4    4.08    0.98
   6  12   4    2.23    0.76
  -6  12  -4    1.86    0.57
  -6  12   4    2.65    0.56
 -12   6   4    2.37    0.49
  12  -6  -4    4.58    1.21
  12   6  -4    3.53    1.21
  12   6   4    3.65    0.94
   6  12  -4    3.64    0.86
   6  12   4    3.68    0.60
  -6  12   4    2.67    0.50
  12   6  -6   71.28    6.30
   6  12  -6   67.97    6.14
  -6  12  -6   72.34    6.28
   6  12   6   71.43    6.24
  -6  12   6   69.44    6.22
 -12   6   6   70.51    6.41
  12  -6  -6   72.71    6.82
  12   6  -6   74.97    6.62
   6  12  -6   72.58    6.54
  12   6   6   73.96    6.46
   6  12   6   72.54    6.34
  -6  12   6   76.69    6.73
  12   6  -8    0.72    0.42
   6  12  -8    1.01    0.29
  -6  12  -8    0.43    0.43
   6  12   8    0.64    0.44
   6 -12  -8    1.22    0.65
  12  -6  -8    2.08    1.00
  12   6  -8    0.95    0.86
   6  12  -8    1.17    0.42
   6  12   8    0.80    0.63
  -6  12   8    0.66    1.15
  12   6 -10   29.24    5.22
   6  12 -10   28.73    0.98
  -6  12  10   29.67    1.43
   6 -12 -10   31.10    1.22
  12  -6 -10   29.71    1.39
  12   6 -10 2160.81  938.27
   6  12  10   35.72    1.30
  -6  12  10   21.41    4.37
  12   7  -1   70.66    4.70
  12   7   1   69.90    4.13
   7  12  -1   69.25    4.14
   7  12   1   70.12    4.31
  -7  12  -1   67.49    4.16
  -7  12   1   69.92    4.25
 -12   7  -1   69.75    4.19
 -12   7   1   60.93    4.27
   7 -12  -1   71.39    4.63
   7 -12   1   71.28    4.47
  12  -7  -1   71.05    4.51
  12  -7   1   72.61    4.50
  12   7  -1   71.06    4.58
  12   7   1   69.20    4.81
   7  12  -1   66.79    4.05
   7  12   1   72.62    4.39
   7  12  -1   64.62    3.81
  12   7  -1   58.84    3.42
  -7  12  -1   71.17    4.13
   7  12   1   69.19    4.03
  -7  12   1   65.47    3.84
  12   7  -3   65.24    4.54
   7  12  -3   69.57    4.95
   7  12   3   63.17    4.45
  -7  12  -3   63.68    4.53
  -7  12   3   68.04    5.23
 -12   7   3   62.47    4.74
   7 -12  -3   65.30    4.92
  12  -7  -3   60.64    5.55
  12  -7   3   62.21    4.43
  12   7  -3   65.04    4.53
  12   7   3   60.00    4.19
   7  12  -3   64.07    4.61
   7  12   3   61.42    4.40
  -7  12   3   69.42    4.72
  12   7  -5   75.66    6.92
   7  12  -5   70.40    6.25
  -7  12  -5   69.53    6.04
   7  12   5   71.99    6.27
  -7  12   5   69.20    6.21
 -12   7   5   68.43    6.09
   7 -12  -5   74.07    7.24
  12  -7  -5   68.21    6.45
  12   7  -5   80.22    7.15
   7  12  -5   70.88    6.37
  12   7   5   65.91    5.76
   7  12   5   67.91    6.11
  -7  12   5   72.89    6.37
  12   7  -7   52.12    3.95
   7  12  -7   49.05    3.69
  -7  12  -7   46.53    3.32
   7  12   7   44.10    3.19
  -7  12   7   45.43    3.39
 -12   7   7   45.91    3.42
   7 -12  -7   51.26    4.21
  12  -7  -7   46.85    3.91
  12   7  -7   49.71    3.62
   7  12  -7   44.39    3.22
  12   7   7   48.52    3.62
   7  12   7   47.16    3.47
  -7  12   7   47.73    3.51
  12   7  -9   41.91    4.59
   7  12  -9   42.50    4.61
  -7  12   9   38.58    4.44
   7 -12  -9   46.97    7.31
  12  -7  -9   41.12    5.16
  12   7  -9   41.33    4.46
   7  12   9   39.36    4.28
  -7  12   9   39.04    4.26
  12   7 -11   24.71    3.37
   7  12 -11   23.69    4.29
  -7  12  11   22.53    4.84
   7 -12 -11   23.67    3.51
  12  -7 -11   27.55    4.33
  12   7 -11   22.23    3.03
   7  12  11   22.62    5.20
  -7  12  11   22.77    3.16
  12   8   0    4.70    1.09
   8  12   0    6.33    1.26
  -8  12   0    4.74    1.09
 -12   8   0    4.37    1.72
   8 -12   0    4.68    0.88
  12  -8   0    6.79    2.28
  12   8   0    5.76    1.56
   8  12   0    6.82    1.17
   8  12   0    5.53    0.88
  12   8   0    5.04    1.09
  -8  12   0    5.77    1.02
  12   8  -2    1.45    0.46
   8  12  -2    1.27    0.39
  12   8   2    1.66    0.44
   8  12   2    0.46    0.40
  -8  12  -2    0.52    0.23
  -8  12   2    1.11    0.51
 -12   8  -2    1.04    0.32
 -12   8   2    0.65    0.34
   8 -12  -2    0.23    0.48
  12  -8  -2    0.86    0.65
  12  -8   2    1.29    0.44
  12   8  -2    0.53    0.38
  12   8   2    2.24    0.48
   8  12  -2    1.89    0.44
   8  12   2    1.60    0.69
   8  12  -2    0.61    0.77
  12   8  -2    1.03    0.29
   8  12   2    0.86    0.29
  12   8   2    0.52    0.14
  -8  12   2    0.81    0.22
  12   8  -4    0.47    0.50
   8  12  -4   -0.04    0.46
   8  12   4   -0.01    0.49
  -8  12  -4    0.41    0.19
  -8  12   4    0.97    0.57
 -12   8   4    1.51    0.80
  12  -8  -4    1.57    1.16
  12   8  -4   -0.59    0.59
   8  12  -4   -0.13    0.55
  12   8   4    0.60    0.41
   8  12   4    0.45    0.31
  12   8   4    0.51    0.51
  -8  12   4    0.48    0.35
  12   8  -6    1.25    0.51
   8  12  -6    1.72    0.47
  -8  12  -6    1.04    0.50
   8  12   6    1.48    0.45
  -8  12   6    2.16    0.54
 -12   8   6    0.61    0.46
   8 -12  -6    0.58    1.19
  12  -8  -6    2.07    0.66
  12   8  -6    1.86    0.52
   8  12  -6    1.53    0.49
  12   8   6    2.61    0.66
   8  12   6    1.79    0.62
  -8  12   6    1.58    0.36
  12   8   6    1.39    0.38
  12   8  -8   -0.27    0.75
   8  12  -8    1.03    0.54
  -8  12   8    0.33    0.63
 -12   8   8   -0.05    0.72
   8 -12  -8    0.68    0.76
  12  -8  -8    1.30    1.07
  12   8  -8   -0.04    0.61
   8  12  -8    0.47    0.32
   8  12   8    0.92    0.76
  -8  12   8    0.41    0.78
  12   8   8    0.26    0.34
  12   8 -10    0.99    0.54
   8  12 -10    0.44    0.50
  -8  12  10    1.04    0.83
 -12   8  10    0.30    0.75
   8 -12 -10    1.53    0.88
  12  -8 -10    0.69    0.58
   8  12  10    0.51    0.55
  -8  12  10    1.04    0.97
  12   9  -1   49.48    3.47
  12   9   1   49.42    3.46
   9  12  -1   50.04    3.57
   9  12   1   48.36    3.39
  -9  12  -1   53.16    3.75
  -9  12   1   44.10    3.45
 -12   9  -1   42.04    2.98
 -12   9   1   56.08    3.99
   9 -12  -1   49.91    4.05
   9 -12   1   47.69    3.95
  12  -9  -1   47.24    3.76
  12  -9   1   49.96    3.75
  12   9  -1   52.83    4.28
  12   9   1   46.48    3.31
   9  12  -1   47.33    3.55
   9  12   1   50.80    4.06
   9  12  -1   45.93    3.17
  12   9  -1   48.85    3.38
  -9  12  -1   50.81    3.47
   9  12   1   51.98    3.71
  12   9   1   46.05    3.16
  -9  12   1   49.56    3.41
  12   9  -3   68.54    6.19
   9  12  -3   72.80    6.42
   9  12   3   67.84    5.93
  -9  12  -3   68.27    6.06
  -9  12   3   68.70    6.40
 -12   9   3   64.25    5.83
   9 -12  -3   71.40    6.96
  12  -9  -3   74.13    6.85
  12   9  -3   69.89    6.19
   9  12  -3   65.87    5.78
  12   9   3   74.07    6.54
  -9  12  -3   64.35    5.56
   9  12   3   70.28    6.33
  12   9   3   60.12    5.27
  -9  12   3   69.85    6.07
  12   9  -5   53.34    4.80
   9  12  -5   52.22    4.70
   9  12   5   49.72    4.41
  -9  12  -5   48.53    4.29
  -9  12   5   50.92    4.59
 -12   9   5   51.16    4.70
   9 -12  -5   52.10    4.89
  12  -9  -5   54.71    5.45
  12   9  -5   53.65    4.81
   9  12  -5   50.50    4.61
  12   9   5   44.10    3.96
   9  12   5   46.14    4.08
  12   9   5   51.01    4.53
  -9  12   5   52.91    4.70
  12   9  -7   43.34    1.97
   9  12  -7   44.30    1.85
  -9  12   7   40.08    2.19
 -12   9   7   42.26    1.61
   9 -12  -7   45.47    1.86
  12  -9  -7   44.09    1.96
  12   9  -7   38.82    1.14
   9  12  -7   43.24    1.13
   9  12   7   43.44    1.16
  12   9   7   42.08    1.21
  -9  12   7   41.79    1.30
  12   9  -9   17.74    2.82
   9  12  -9   15.89    2.33
  -9  12   9   13.91    3.62
 -12   9   9   20.18    1.82
   9 -12  -9   22.87    4.36
  12  -9  -9   18.88    3.79
  12   9  -9   19.66    0.89
   9  12   9   16.01    3.88
  12   9   9   13.41    3.01
  -9  12   9   12.03    4.27
  12  10   0    0.60    0.41
  10  12   0    0.45    0.32
 -10  12   0    0.76    0.17
 -12  10   0    0.39    0.34
  10 -12   0    1.30    0.41
  12  10   0    0.78    0.61
  10  12   0    0.65    0.43
  10  12   0    0.64    0.19
  12  10   0    0.94    0.32
 -10  12   0    0.79    0.29
  12  10  -2   60.92    5.40
  10  12  -2   63.24    5.65
  12  10   2   58.77    5.19
  10  12   2   54.82    4.85
 -10  12  -2   59.21    5.23
 -10  12   2   61.97    5.53
 -12  10  -2   58.87    5.23
 -12  10   2   58.39    5.22
  10 -12  -2   55.50    5.09
  12 -10  -2   62.58    6.02
  12  10  -2   60.99    5.76
  10  12  -2   59.33    5.42
  12  10   2   63.27    5.84
  10  12   2   42.42    4.23
  10  12  -2   57.54    5.05
  12  10  -2   56.13    4.91
 -10  12  -2   64.16    5.58
  10  12   2   56.17    4.93
  12  10   2   55.99    4.98
 -10  12   2   64.35    5.63
  12  10  -4    1.17    0.43
  10  12  -4    1.44    0.49
  10  12   4    1.03    0.34
 -10  12  -4    0.82    0.50
 -10  12   4    1.14    0.37
 -12  10   4    1.16    0.73
  10 -12  -4    1.10    0.40
  12 -10  -4    3.14    0.81
  12  10  -4    0.82    0.21
  10  12  -4    1.64    0.60
  12  10   4    1.88    0.61
  10  12   4    1.12    0.29
  12  10   4    1.51    0.36
 -10  12   4    0.44    0.41
  12  10  -6   43.95    2.17
  10  12  -6   44.43    1.59
 -10  12   6   41.67    1.36
 -12  10   6   42.91    1.55
  10 -12  -6   43.30    2.01
  12 -10  -6   43.85    2.34
  12  10  -6   40.64    1.09
  10  12  -6   44.77    1.15
  10  12   6   43.53    1.13
  12  10   6   39.03    1.10
 -10  12   6   38.60    1.15
  12  10  -8    0.57    0.49
  10  12  -8    0.84    0.39
 -10  12   8    0.48    0.50
 -12  10   8    0.88    0.60
  10 -12  -8    0.78    0.39
  12 -10  -8    1.51    0.92
  12  10  -8    1.12    0.41
  10  12  -8    0.35    0.43
  10  12   8    1.07    0.42
  12  10   8    0.18    0.54
 -10  12   8    0.54    0.51
  12  10 -10   20.71   11.98
  10  12 -10   25.55   14.29
 -10  12  10   22.02   12.34
 -12  10  10   23.13   12.98
  10 -12 -10   22.60   13.35
  12 -10 -10   23.44   13.92
  12  10 -10   23.28   13.02
  10  12  10   22.46   12.59
 -10  12  10   19.93   11.17
  12  11  -1    9.18    1.44
  11  12  -1    7.96    1.69
  12  11   1    7.81    1.52
  11  12   1    7.08    1.84
 -11  12  -1    6.57    1.94
 -11  12   1    7.80    2.39
 -12  11  -1    7.84    2.41
 -12  11   1    7.03    1.84
  11 -12  -1   10.55    3.30
  11 -12   1    7.59    1.86
  12 -11  -1   11.29    2.49
  12 -11   1    7.06    2.02
  12  11  -1    7.82    1.91
  11  12  -1   10.54    1.93
  12  11   1    9.42    1.60
  11  12   1    8.10    2.29
  11  12  -1    8.97    1.22
  12  11  -1    8.12    1.30
  11  12   1    7.65    1.47
  12  11   1    8.97    1.39
  12  11  -3    3.50    0.88
  11  12  -3    4.32    0.71
  12  11   3    3.14    1.15
  11  12   3    3.27    0.78
 -11  12  -3    3.06    1.13
 -11  12   3    3.32    1.19
 -12  11   3    3.31    1.07
  11 -12  -3    4.39    0.84
  12 -11  -3    3.43    1.55
  12  11  -3    3.97    1.04
  11  12  -3    3.91    1.05
  12  11   3    2.91    0.62
  11  12   3    4.13    0.98
  11  12  -3    8.65    3.02
  12  11  -3    3.60    1.13
  11  12   3    4.41    0.68
  12  11   3    4.01    0.74
  12  11  -5    2.90    1.45
  11  12  -5    2.57    1.34
 -11  12   5    2.34    1.37
 -12  11   5    2.76    1.65
  11 -12  -5    2.62    1.50
  12 -11  -5    5.21    2.50
  12  11  -5    2.48    1.19
  11  12  -5    2.26    1.18
  12  11   5    2.88    1.53
  11  12   5    2.53    1.28
  12  11   5    2.65    1.26
  12  11  -7    4.55    1.09
  11  12  -7    4.00    0.95
 -11  12   7    3.71    1.94
 -12  11   7    3.84    1.22
  11 -12  -7    5.75    1.27
  12 -11  -7    3.75    0.65
  12  11  -7    3.86    1.48
  11  12  -7    4.37    1.34
  11  12   7    3.69    0.78
  12  11   7    4.11    0.50
  12  11  -9    4.10    2.41
  11  12  -9    3.71    2.19
 -11  12   9    3.06    2.02
 -12  11   9    2.94    2.00
  11 -12  -9    3.77    2.34
  12 -11  -9    2.44    1.55
  12  11  -9    1.41    0.88
  11  12  -9    2.24    1.59
  11  12   9    3.06    1.79
  12  11   9    2.32    1.94
  12  12   0   -1.17    0.45
 -12  12   0    0.48    0.40
  12 -12   0    1.61    0.47
  12  12   0    0.15    0.43
  12  12   0   -0.09    0.23
  12  12   2   63.16    1.66
 -12  12  -2   63.70    1.87
 -12  12   2   69.21    3.16
  12 -12  -2   69.49    2.21
  12  12  -2   69.11    1.50
  12  12  -2   67.70    0.80
  12  12  -4    1.52    0.74
 -12  12   4    0.96    0.70
  12 -12  -4    0.77    0.50
  12  12  -4    0.96    0.57
  12  12   4    2.44    1.27
  12  12   4    2.29    1.11
  12  12  -6   56.58    1.64
 -12  12   6   59.29    1.65
  12 -12  -6   56.51    1.83
  12  12  -6   58.05    1.43
  12  12   6   55.78    1.36
  12  12  -8    0.65    0.33
 -12  12   8   -0.03    0.37
  12 -12  -8   -0.01    0.31
  12  12  -8    0.13    0.15
  12  12   8    0.13    0.62
  13   0  -1  105.07    2.29
   0  13  -1  106.05    1.29
   0  13   1  112.35    1.40
   0  13  -1  111.56    1.09
   0  13   1  110.49    1.14
  13   0  -3   70.10    4.31
   0  13  -3   68.76    4.24
   0  13   3   66.31    3.99
  13   0  -3   63.85    3.94
  13   0   3   64.42    3.98
   0  13   3   67.87    3.99
  13   0  -5   30.01    2.71
   0  13  -5   27.16    1.94
   0  13   5   31.60    2.31
  13   0  -5   29.24    2.59
  13   0   5   29.57    2.24
   0  13   5   27.95    2.10
  13   0  -7   74.73    6.68
   0  13  -7   70.23    6.15
   0  13   7   67.25    5.91
  13   0  -7   71.15    6.35
   0  13   7   65.63    6.23
  13   0  -9   52.76    2.02
   0  13  -9   46.48    1.03
   0  13   9   47.97    1.23
  13   0  -9   47.12    1.24
   0  13   9   44.59    1.38
  13   0 -11   25.00   11.91
   0  13 -11   30.23   13.11
   0  13  11   28.93   12.58
  13   0 -11   30.14   13.10
   0  13  11   30.56   13.30
  13  -1   0   32.07    0.99
  13   1   0   33.65    1.00
   1  13   0   36.23    0.94
  -1  13   0   38.84    0.89
  13  -1   0   34.10    1.28
  -1  13   0   34.59    0.73
   1  13   0   33.42    0.63
  13  -1  -2   23.95    1.01
  13   1  -2   24.93    0.96
   1  13  -2   24.52    0.70
  -1  13  -2   23.12    0.67
   1  13   2   25.52    0.79
  -1  13   2   25.43    1.01
  13  -1  -2   21.61    1.08
  13   1  -2   23.76    2.02
  13  -1   2   29.05    1.49
  13   1   2   27.30    0.96
   1  13   2   24.77    0.61
  -1  13   2   24.70    0.56
  13  -1  -4   16.64    2.82
  13   1  -4   16.73    3.38
   1  13  -4   14.19    1.02
  -1  13  -4   16.22    1.10
   1  13   4   13.58    0.99
  -1  13   4   16.48    1.23
  13  -1  -4   16.49    1.45
  13   1  -4   16.17    1.55
  13  -1   4   15.53    1.21
  13   1   4   14.68    1.36
   1  13   4   14.31    0.99
  -1  13   4   14.90    1.05
  13  -1  -6   14.32    4.00
  13   1  -6   16.29    3.47
   1  13  -6   14.66    1.18
  -1  13  -6   11.62    1.49
   1  13   6   17.51    1.48
  -1  13   6   16.46    1.35
  13  -1  -6   16.46    1.70
  13   1  -6   14.35    1.45
  13   1   6   14.22    1.16
   1  13   6   12.39    1.04
  -1  13   6   12.78    1.14
  13  -1  -8   27.30    4.51
  13   1  -8   28.24    5.33
   1  13  -8   22.53    1.72
  -1  13  -8   20.03    1.53
   1  13   8   19.78    1.63
  -1  13   8   20.50    2.07
  13  -1  -8   22.69    1.88
  13   1  -8   23.31    2.41
   1  13   8   18.49    1.56
  -1  13   8   24.63    4.20
  13  -1 -10   11.36    3.69
  13   1 -10   13.50    3.05
   1  13 -10   10.48    1.24
  -1  13 -10   10.57    2.27
   1  13  10   10.11    2.49
  -1  13  10   10.90    2.49
  13  -1 -10   10.89    1.44
  13   1 -10   10.60    1.76
   1  13  10    9.64    2.21
  -1  13  10    9.33    1.42
  13  -1 -12    6.96    4.31
  13   1 -12    5.53    3.30
   1  13 -12    5.83    3.45
  -1  13 -12    4.64    3.41
   1  13  12    6.00    3.63
  -1  13  12    7.20    4.32
  13  -1 -12    6.46    4.24
  13   1 -12    5.43    3.69
   1  13  12    7.68    4.53
  -1  13  12    7.78    4.59
  13  -2  -1   24.41    1.03
   2  13  -1   23.41    0.91
   2  13   1   22.09    0.80
  -2  13  -1   24.94    0.73
  -2  13   1   23.55    0.74
  13  -2  -1   24.91    1.01
  13  -2   1   21.06    0.80
  13   2   1   25.93    1.54
   2  13  -1   24.24    0.56
  -2  13  -1   22.22    0.57
   2  13   1   21.88    0.51
  -2  13   1   26.63    0.69
  13  -2  -3   25.39    1.81
  13   2  -3   23.09    1.68
   2  13  -3   23.53    1.53
  -2  13  -3   23.33    1.51
   2  13   3   24.42    1.59
  -2  13   3   22.16    1.51
  13  -2  -3   24.04    2.02
  13   2  -3   22.42    2.85
  13  -2   3   25.05    1.77
  13   2   3   24.55    1.64
   2  13   3   23.13    1.45
  -2  13   3   26.09    1.68
  13  -2  -5   33.53    2.56
  13   2  -5   25.88    2.01
   2  13  -5   32.35    2.39
  -2  13  -5   32.77    2.35
   2  13   5   27.71    2.03
  -2  13   5   31.86    2.33
  13  -2  -5   31.97    2.47
  13   2  -5   29.68    3.38
  13  -2   5   27.94    2.34
  13   2   5   28.51    2.13
   2  13   5   28.45    2.06
  -2  13   5   29.84    2.18
  13  -2  -7   16.35    3.43
  13   2  -7   17.16    1.83
   2  13  -7   14.77    1.92
  -2  13  -7   19.41    2.24
   2  13   7   16.08    1.53
  -2  13   7   19.09    1.91
  13  -2  -7   19.22    1.99
  13   2  -7   18.45    1.85
  13   2   7   14.84    1.56
   2  13   7   19.25    1.89
  -2  13   7   16.48    1.60
  13  -2  -9   28.31    1.43
  13   2  -9   22.37    1.73
   2  13  -9   25.87    3.27
  -2  13  -9   24.98    0.80
   2  13   9   24.73    0.84
  -2  13   9   26.29    2.77
  13  -2  -9   24.31    1.64
  13   2  -9   22.61    2.60
   2  13   9   27.58    1.38
  -2  13   9   23.37    0.92
  13  -2 -11   20.34    9.78
  13   2 -11   17.94    8.10
   2  13 -11   19.17    8.83
  -2  13 -11   19.86    8.64
   2  13  11   17.81    8.46
  -2  13  11   17.66    8.45
  13  -2 -11   20.50    8.99
  13   2 -11   20.40    8.92
   2  13  11   16.63    8.28
  -2  13  11   18.47    8.52
  13  -3   0   30.87    1.08
  13   3   0   34.85    0.99
   3  13   0   34.81    1.02
  -3  13   0   31.62    0.99
  13  -3   0   32.26    1.53
  13   3   0   29.06    1.12
   3  13   0   29.19    0.73
  -3  13   0   32.31    0.57
  13  -3  -2  108.40    6.54
  13   3  -2  120.54    7.18
   3  13  -2  118.01    7.05
   3  13   2  119.02    6.95
  -3  13  -2  113.06    7.08
  -3  13   2  115.86    6.87
  13  -3  -2  125.38    7.51
  13  -3   2  116.82    7.31
  13   3  -2  129.62    7.93
  13   3   2  115.35    6.81
   3  13   2  117.71    6.89
  -3  13   2  119.05    6.97
  13  -3  -4    7.56    1.31
  13   3  -4    8.56    0.97
   3  13  -4    9.28    1.85
  -3  13  -4    6.84    1.22
   3  13   4    8.39    2.12
  -3  13   4    7.96    1.79
  13  -3  -4    8.10    1.31
  13   3  -4    7.06    1.91
  13  -3   4    6.83    0.70
  13   3   4    8.24    2.08
   3  13   4    6.05    0.87
  -3  13   4    6.88    0.63
  13  -3  -6   73.97    6.76
  13   3  -6   74.31    6.62
   3  13  -6   77.75    6.82
  -3  13  -6   75.22    6.56
   3  13   6   74.11    6.45
  -3  13   6   70.78    6.22
  13  -3  -6   79.57    7.14
  13   3  -6   77.50    6.86
  13   3   6   77.72    6.85
   3  13   6   73.79    6.47
  -3  13   6   81.31    7.09
  13  -3  -8    9.47    2.88
  13   3  -8    9.00    2.63
   3  13  -8    8.11    1.66
  -3  13  -8    8.29    1.56
   3  13   8    9.58    0.90
  -3  13   8    9.71    2.26
  13  -3  -8   10.09    1.53
  13   3  -8    8.48    2.58
  13   3   8    7.64    2.11
   3  13   8   10.44    2.70
  -3  13   8   11.41    1.04
  13  -3 -10   50.66    5.61
  13   3 -10   57.11    2.18
   3  13 -10   62.65    6.75
  -3  13 -10   57.03    6.05
   3  13  10   52.56    1.16
  -3  13  10   57.38    1.70
  13  -3 -10   61.09    6.58
  13   3 -10   53.09    1.67
   3  13  10   59.18    6.42
  -3  13  10   54.52    1.46
  13   4  -1   19.06    1.34
  13   4   1   19.43    1.27
   4  13  -1   19.63    1.33
   4  13   1   18.14    1.26
  -4  13  -1   19.19    1.31
  -4  13   1   18.93    1.35
  13  -4  -1   21.08    1.68
  13  -4   1   18.27    1.55
  13   4  -1   18.84    2.02
  13   4   1   21.21    1.69
   4  13  -1   18.93    1.90
  -4  13  -1   18.11    1.14
   4  13   1   20.06    1.29
  -4  13   1   19.93    1.27
  13   4  -3   13.65    3.07
   4  13  -3   11.68    2.59
  -4  13  -3   11.09    2.00
   4  13   3   11.34    2.27
  -4  13   3   11.33    0.97
  13  -4  -3   11.97    3.11
  13  -4   3    9.47    1.03
  13   4  -3   11.99    2.83
  13   4   3   12.81    2.69
   4  13   3   10.96    2.12
  -4  13   3   10.81    1.97
  13   4  -5   13.95    1.90
   4  13  -5   14.31    1.20
  -4  13  -5   12.32    0.97
   4  13   5   13.64    1.11
  -4  13   5   11.64    2.94
  13  -4  -5   17.68    1.91
  13   4  -5   13.18    3.09
  13   4   5   14.31    2.53
   4  13  -5   16.05    1.47
   4  13   5   13.65    1.19
  -4  13   5   13.15    1.15
  13  -4  -7    8.47    1.10
  13   4  -7   10.89    3.28
   4  13  -7    9.06    0.98
  -4  13  -7    9.15    1.05
   4  13   7    9.30    1.05
  -4  13   7    9.87    2.39
  13  -4  -7   10.49    2.43
  13   4  -7    8.26    1.87
  13   4   7   10.18    1.58
   4  13   7    8.14    2.76
  -4  13   7    9.88    1.63
  13  -4  -9    7.10    3.42
  13   4  -9    6.42    4.53
   4  13  -9    6.41    3.16
  -4  13  -9    5.84    2.67
   4  13   9    4.85    2.20
  -4  13   9    6.67    3.48
  13  -4  -9    7.15    3.35
  13   4  -9    7.24    3.76
   4  13   9    9.04    3.95
  -4  13   9    6.97    3.36
  13  -4 -11    5.11    1.26
  13   4 -11    4.04    1.81
   4  13 -11    3.05    1.08
  -4  13  11    2.72    1.01
  13  -4 -11    4.25    1.09
  13   4 -11    3.66    1.40
   4  13  11    4.16    0.92
  -4  13  11    4.16    1.95
  13   5   0   10.48    0.96
   5  13   0    9.74    0.81
  -5  13   0    8.49    1.76
 -13   5   0    8.90    2.34
  13  -5   0   11.00    1.28
  13   5   0    9.51    2.74
   5  13   0    9.43    0.65
  -5  13   0    9.20    0.63
  13   5  -2  115.51    7.97
   5  13  -2  112.83    7.63
   5  13   2  113.47    7.67
  -5  13  -2  108.66    7.50
  -5  13   2  116.43    7.91
 -13   5   2  118.11    8.50
  13  -5  -2  119.48    9.14
  13  -5   2  113.19    7.73
  13   5  -2  113.46    8.05
  13   5   2  114.35    7.82
  -5  13  -2  119.26    8.01
   5  13   2  112.43    7.54
  -5  13   2  120.67    8.24
  13   5  -4    5.40    1.22
   5  13  -4    6.26    1.28
  -5  13  -4    5.18    1.39
   5  13   4    7.69    0.73
  -5  13   4    6.24    1.41
  13  -5  -4    7.19    1.44
  13  -5   4    6.93    1.53
  13   5  -4    6.80    2.64
  13   5   4    6.19    2.84
   5  13  -4    6.16    1.54
   5  13   4    6.29    1.54
  -5  13   4    7.40    1.76
  13   5  -6  104.60    9.21
   5  13  -6  108.56    9.68
  -5  13  -6  102.24    8.99
   5  13   6  111.77    9.75
  -5  13   6  104.95    9.29
  13  -5  -6  112.89    9.96
  13   5   6  106.21    9.30
   5  13  -6  106.61    9.41
   5  13   6  104.81    9.16
  -5  13   6  107.22    9.40
  13  -5  -8    2.23    0.76
  13   5  -8    2.26    0.90
   5  13  -8    1.72    0.41
  -5  13  -8    1.44    0.44
   5  13   8    1.39    0.39
  -5  13   8    2.63    0.97
  13  -5  -8    2.86    0.72
  13   5  -8    1.50    1.16
  13   5   8    2.28    0.58
   5  13   8    2.15    0.59
  -5  13   8    1.90    0.84
  13  -5 -10   44.90    1.48
  13   5 -10   48.52    1.51
   5  13 -10   51.59    1.57
  -5  13  10   42.61    1.50
   5 -13 -10   49.84    1.65
  13  -5 -10   49.22    2.05
  13   5 -10   50.14    1.28
   5  13  10   51.74    1.63
  -5  13  10   50.92    1.43
  13   6  -1   32.21    2.34
  13   6   1   29.77    2.11
   6  13  -1   32.54    2.35
   6  13   1   30.60    2.25
  -6  13  -1   29.23    2.12
  -6  13   1   30.85    3.24
 -13   6  -1   27.63    2.04
 -13   6   1   27.47    2.06
  13  -6  -1   31.01    2.50
  13  -6   1   31.82    2.44
  13   6  -1   31.28    2.35
  13   6   1   28.73    2.15
   6  13  -1   32.13    2.77
   6  13  -1   28.96    2.03
  -6  13  -1   28.23    1.95
   6  13   1   27.69    1.93
  -6  13   1   31.50    2.19
  13   6  -3   33.73    2.48
   6  13  -3   29.73    2.16
   6  13   3   31.98    2.32
  -6  13  -3   33.08    2.38
  -6  13   3   29.83    2.36
 -13   6   3   27.21    2.60
  13  -6  -3   34.44    5.75
  13  -6   3   31.54    2.54
  13   6  -3   33.63    3.24
  13   6   3   31.77    2.48
   6  13  -3   31.55    2.40
   6  13   3   31.88    2.28
  -6  13   3   32.54    2.41
  13   6  -5   30.23    2.84
   6  13  -5   28.77    2.76
  -6  13  -5   28.25    2.53
   6  13   5   28.73    2.57
  -6  13   5   26.38    2.55
 -13   6   5   26.64    2.56
  13  -6  -5   26.06    2.48
  13   6  -5   29.44    2.94
  13   6   5   28.74    2.78
   6  13  -5   25.47    2.29
   6  13   5   26.84    2.43
  -6  13   5   29.43    2.66
  13   6  -7   21.26    1.77
   6  13  -7   20.66    3.65
  -6  13  -7   20.29    1.56
   6  13   7   18.26    1.42
  -6  13   7   20.04    1.69
  13  -6  -7   24.10    4.70
  13   6  -7   22.93    1.92
   6  13  -7   19.85    1.51
  13   6   7   21.06    1.74
   6  13   7   22.33    1.77
  -6  13   7   23.34    1.88
  13   6  -9   18.86    2.18
   6  13  -9   14.81    1.68
  -6  13   9   14.73    4.24
   6 -13  -9   21.29    4.41
  13  -6  -9   17.62    2.24
  13   6  -9   17.79    2.06
   6  13   9   15.78    1.86
  -6  13   9   10.72    3.35
  13  -6 -11   10.18    6.46
  13   6 -11   10.00    6.47
   6  13 -11    9.22    5.32
  -6  13  11    8.65    5.14
   6 -13 -11    6.39    4.56
  13  -6 -11    9.15    5.44
  13   6 -11  471.36  305.24
   6  13  11    8.98    5.64
  -6  13  11    7.35    4.71
  13   7   0    9.07    1.90
   7  13   0   10.02    2.18
  -7  13   0    8.77    0.80
 -13   7   0   10.55    1.34
   7 -13   0    9.10    1.52
  13  -7   0   10.58    2.62
  13   7   0    9.21    1.89
   7  13   0   12.05    1.37
   7  13   0    9.46    0.75
  -7  13   0   10.85    0.82
  13   7  -2   10.38    2.00
   7  13  -2   10.52    2.20
   7  13   2    9.38    2.05
  -7  13  -2    8.03    1.64
  -7  13   2    8.19    2.16
 -13   7  -2    8.13    1.19
 -13   7   2    8.94    2.54
   7 -13  -2   11.59    2.44
  13  -7  -2   11.39    2.81
  13  -7   2   10.53    1.07
  13   7  -2    9.15    2.46
  13   7   2    8.71    1.75
   7  13  -2    8.95    2.05
   7  13  -2   12.10    2.16
  -7  13  -2    9.52    0.73
   7  13   2    9.49    1.58
  -7  13   2   10.60    0.86
  13   7  -4   26.35    2.48
   7  13  -4   26.39    2.40
   7  13   4   30.82    2.81
  -7  13  -4   26.90    2.44
  -7  13   4   24.41    2.51
 -13   7   4   25.42    2.85
   7 -13  -4   31.57    3.50
  13  -7  -4   28.89    3.30
  13   7  -4   28.54    2.65
  13   7   4   23.96    2.22
   7  13  -4   24.27    2.25
   7  13   4   26.48    2.42
  -7  13   4   29.40    3.84
  13   7  -6    7.56    1.74
   7  13  -6    6.68    0.96
  -7  13  -6    6.55    1.38
   7  13   6    6.88    1.20
  -7  13   6    8.16    2.61
 -13   7   6    7.38    1.36
   7 -13  -6   10.38    2.42
  13  -7  -6    9.81    1.58
  13   7  -6    6.55    1.61
   7  13  -6    6.48    1.17
  13   7   6    6.29    1.63
   7  13   6    7.34    1.11
  -7  13   6    6.72    1.81
  13   7  -8    6.19    1.70
   7  13  -8    7.75    1.62
  -7  13   8    6.84    2.11
   7 -13  -8   10.24    2.44
  13  -7  -8    8.21    2.30
  13   7  -8   11.86    1.70
   7  13   8    9.48    2.25
  -7  13   8    8.70    1.22
  13   7 -10    8.35    2.36
   7  13 -10    7.42    1.81
  -7  13  10    8.12    2.41
   7 -13 -10    6.19    1.44
  13  -7 -10    8.12    2.21
  13   7 -10    5.67    2.08
   7  13  10    9.00    2.04
  -7  13  10    5.08    1.49
  13   8  -1   47.89    4.22
  13   8   1   48.43    4.25
   8  13  -1   48.31    4.29
   8  13   1   49.21    4.55
  -8  13  -1   59.15    5.25
  -8  13   1   48.47    4.33
 -13   8  -1   47.40    4.25
 -13   8   1   53.17    5.66
   8 -13  -1   51.25    4.85
   8 -13   1   45.08    4.13
  13  -8  -1   47.67    4.49
  13  -8   1   46.25    4.45
  13   8  -1   51.57    4.62
  13   8   1   45.10    4.31
   8  13  -1   50.79    5.04
   8  13   1   51.10    4.65
   8  13  -1   44.26    3.85
  -8  13  -1   53.46    4.62
   8  13   1   49.11    4.28
  -8  13   1   49.38    4.28
  13   8  -3   55.29    4.88
   8  13  -3   55.86    5.44
   8  13   3   60.47    5.29
  -8  13  -3   52.77    4.62
  -8  13   3   59.52    5.26
 -13   8   3   53.82    5.23
   8 -13  -3   59.42    5.70
  13  -8  -3   51.35    4.96
  13   8  -3   57.59    5.14
  13   8   3   55.54    5.00
   8  13  -3   56.66    5.07
  -8  13  -3   54.51    4.72
   8  13   3   52.72    4.71
  -8  13   3   58.68    5.11
  13   8  -5   66.52    4.81
   8  13  -5   64.73    4.69
   8  13   5   61.27    4.35
  -8  13  -5   65.09    4.63
  -8  13   5   62.64    4.55
 -13   8   5   66.20    5.76
   8 -13  -5   62.81    5.02
  13  -8  -5   56.78    5.54
  13   8  -5   59.01    4.28
   8  13  -5   63.18    4.53
  13   8   5   64.25    4.64
   8  13   5   60.50    4.80
  -8  13   5   64.21    4.63
  13   8  -7   34.48   15.02
   8  13  -7   29.99   12.83
  -8  13   7   31.43   13.36
 -13   8   7   33.89   14.42
   8 -13  -7   34.71   14.96
  13  -8  -7   31.12   13.60
  13   8  -7   34.59   14.69
   8  13  -7   31.17   13.51
  13   8   7   31.91   13.64
   8  13   7   31.95   13.57
  -8  13   7   35.55   15.10
  13   8  -9   21.40   10.09
   8  13  -9   25.89   11.23
  -8  13   9   22.07    9.60
 -13   8   9   22.28    9.70
   8 -13  -9   29.60   12.91
  13  -8  -9   24.77   10.81
  13   8  -9   22.74   10.44
   8  13   9   22.43   10.50
  -8  13   9   12.92    6.79
  13   9   0    7.94    1.63
   9  13   0    6.78    1.76
  -9  13   0    5.79    1.67
 -13   9   0    5.24    2.52
   9 -13   0    7.92    2.05
  13  -9   0    8.98    1.85
  13   9   0    6.50    1.73
   9  13   0    6.37    2.26
   9  13   0    6.45    1.25
  -9  13   0    5.93    0.99
  13   9  -2   10.00    2.54
   9  13  -2   10.71    1.09
   9  13   2   11.39    2.29
  -9  13  -2    9.59    0.98
  -9  13   2   10.25    1.08
 -13   9   2    9.79    2.15
   9 -13  -2   11.32    2.17
  13  -9  -2   12.06    2.54
  13  -9   2    9.42    2.55
  13   9  -2   10.46    2.97
  13   9   2   11.80    1.50
   9  13  -2   12.64    1.40
   9  13   2   10.29    2.18
   9  13  -2   10.60    1.64
  -9  13  -2   11.82    1.08
   9  13   2    9.71    1.78
  -9  13   2   10.11    2.00
  13   9  -4   14.93    3.24
   9  13  -4   15.19    1.26
   9  13   4   12.97    2.36
  -9  13  -4   14.93    1.19
  -9  13   4   12.60    2.63
 -13   9   4   13.03    3.47
   9 -13  -4   16.26    3.44
  13  -9  -4   16.04    3.20
  13   9  -4   13.30    2.47
   9  13  -4   12.50    2.47
  13   9   4   14.37    3.25
   9  13   4   12.94    2.17
  -9  13   4   17.23    1.49
  13   9  -6    9.49    4.40
   9  13  -6    8.08    4.01
   9  13   6    6.36    3.11
  -9  13   6    6.49    3.26
 -13   9   6    9.40    4.52
   9 -13  -6    9.84    4.86
  13  -9  -6    8.94    4.42
  13   9  -6    6.80    3.52
   9  13  -6    6.42    3.11
  13   9   6    7.86    3.83
   9  13   6    7.83    3.51
  -9  13   6    9.27    3.98
  13   9  -8    4.90    1.14
   9  13  -8    8.00    0.97
  -9  13   8    6.68    1.47
 -13   9   8    5.17    2.71
   9 -13  -8    7.47    1.64
  13  -9  -8    8.02    1.84
  13   9  -8    6.67    2.01
   9  13  -8    5.31    1.11
   9  13   8    7.14    1.52
  -9  13   8    6.11    1.75
  13  10  -1   18.86    3.08
  13  10   1   20.61    1.60
  10  13  -1   21.00    2.75
  10  13   1   17.49    1.69
 -10  13  -1   18.00    1.46
 -10  13   1   20.83    1.93
 -13  10  -1   18.29    1.64
 -13  10   1   16.53    1.44
  10 -13  -1   18.74    3.10
  13 -10  -1   17.65    2.16
  13 -10   1   19.00    1.95
  13  10  -1   18.65    1.55
  13  10   1   16.58    2.73
  10  13  -1   19.60    1.87
  10  13   1   18.54    2.25
  10  13  -1   19.42    1.81
  10  13   1   20.65    1.55
 -10  13   1   20.42    1.52
  13  10  -3   17.14    1.17
  10  13  -3   18.83    0.81
  10  13   3   18.38    1.41
 -10  13  -3   18.12    0.84
 -10  13   3   18.73    1.54
 -13  10   3   15.35    3.68
  10 -13  -3   21.34    3.50
  13 -10  -3   19.85    3.56
  13  10  -3   20.63    2.31
  10  13  -3   16.70    2.85
  13  10   3   19.94    1.25
  10  13  -3   23.86    1.82
  10  13   3   18.84    0.74
 -10  13   3   21.42    0.69
  13  10  -5   15.14    6.73
  10  13  -5   16.98    7.24
  10  13   5    9.92    4.66
 -10  13   5   10.30    4.94
 -13  10   5   14.10    6.15
  13 -10  -5   14.57    6.65
  13  10  -5   10.67    5.24
  10  13  -5   10.97    5.36
  13  10   5   11.43    5.30
  10  13   5   13.41    6.01
 -10  13   5   14.65    6.25
  13  10  -7   11.84    3.10
  10  13  -7   11.40    2.29
 -10  13   7    8.11    2.05
 -13  10   7    7.45    2.18
  10 -13  -7   12.51    2.20
  13 -10  -7   12.41    1.99
  13  10  -7    9.88    2.69
  10  13  -7   10.88    2.52
  10  13   7    9.76    2.50
 -10  13   7    8.06    2.89
  13  10  -9    8.45    4.99
  10  13  -9    7.97    4.69
 -10  13   9    8.91    5.04
 -13  10   9    7.80    5.06
  10 -13  -9    8.88    5.30
  13 -10  -9    8.14    5.11
  13  10  -9    5.90    3.71
  10  13   9    8.06    4.56
 -10  13   9    4.60    3.30
  13  11   0    1.13    0.38
  11  13   0    1.13    0.29
 -11  13   0    0.91    0.52
 -13  11   0    1.48    0.74
  11 -13   0    1.00    0.55
  13 -11   0   -0.28    0.54
  13  11   0    0.53    0.56
  11  13   0    1.24    0.59
  11  13   0    1.50    0.25
  13  11   0    0.69    0.20
  13  11  -2   38.72    1.42
  11  13  -2   47.39    1.14
  13  11   2   41.04    0.87
  11  13   2   43.24    1.00
 -11  13  -2   44.01    1.55
 -11  13   2   44.71    1.20
 -13  11   2   43.06    2.16
  11 -13  -2   45.01    1.99
  13 -11  -2   42.10    1.92
  13  11  -2   45.04    1.62
  11  13  -2   44.71    1.73
  13  11   2   46.05    1.43
  11  13   2   46.23    1.28
  11  13  -2   43.50    0.79
  11  13   2   46.73    0.85
  13  11  -4    3.73    1.81
  11  13  -4    3.01    1.57
  11  13   4    2.33    1.16
 -11  13   4    2.87    1.57
 -13  11   4    2.99    1.81
  11 -13  -4    4.61    2.23
  13 -11  -4    4.55    2.05
  13  11  -4    2.81    1.54
  11  13  -4    3.41    1.87
  13  11   4    3.82    1.79
  11  13   4    3.57    1.89
  13  11  -6   37.07    1.04
  11  13  -6   36.25    4.59
 -11  13   6   41.79    1.48
 -13  11   6   38.98    1.28
  11 -13  -6   42.06    2.38
  13 -11  -6   39.20    2.70
  13  11  -6   38.45    1.17
  11  13  -6   40.29    1.32
  11  13   6   36.14    1.04
  13  11  -8    0.92    0.75
  11  13  -8    1.41    0.85
 -11  13   8    1.82    1.19
 -13  11   8    1.10    0.93
  11 -13  -8    1.22    0.80
  13 -11  -8    0.91    0.82
  13  11  -8    1.02    0.68
  11  13   8    1.55    1.10
  13  12  -1    2.86    1.38
  12  13  -1    4.75    2.15
  13  12   1    3.66    1.80
  12  13   1    4.67    2.11
 -12  13  -1    2.00    0.94
 -12  13   1    3.38    1.88
 -13  12  -1    3.27    1.72
 -13  12   1    3.36    1.68
  12 -13  -1    4.24    2.18
  13 -12  -1    2.90    1.61
  13  12  -1    3.92    1.92
  12  13  -1    3.65    1.81
  13  12   1    3.08    1.66
  12  13   1    5.09    2.36
  12  13  -1    3.95    1.81
  13  12  -1    3.51    1.57
  12  13   1    3.81    1.66
  13  12   1    3.41    1.65
  13  12  -3    7.31    1.79
  12  13  -3    6.83    1.33
  12  13   3    6.03    1.42
 -12  13   3    4.83    1.59
 -13  12   3    3.62    1.91
  12 -13  -3    5.59    1.35
  13 -12  -3    7.70    1.49
  13  12  -3    6.30    1.59
  12  13  -3    5.15    1.34
  13  12   3    6.15    1.45
  12  13   3    5.58    1.39
  12  13  -3    5.82    1.08
  13  12  -3    4.60    1.43
  12  13   3    6.88    1.17
  13  12  -5    4.02    1.01
  12  13  -5    2.84    0.58
 -12  13   5    2.19    1.27
 -13  12   5    2.80    1.03
  12 -13  -5    3.75    1.08
  13 -12  -5    3.58    1.26
  13  12  -5    3.41    1.19
  12  13  -5    3.65    1.11
  12  13   5    2.59    0.60
  13  12  -7    2.10    1.27
  12  13  -7    2.10    1.29
 -13  12   7    1.90    1.18
  12 -13  -7    2.95    1.93
  13 -12  -7    3.24    2.06
  13  12  -7    2.15    1.37
  12  13  -7    1.78    1.02
  12  13   7    2.72    0.83
  13  13   0    0.51    0.24
 -13  13   0    0.20    0.22
  13  13   0    0.51    0.40
  13  13   0   -0.06    0.17
  13  13  -2   33.66    1.40
 -13  13   2   32.54    1.60
  13 -13  -2   29.57    1.82
  13  13  -2   32.06    1.93
  13  13   2   36.87    1.19
  13  13  -2   32.25    0.77
  13  13   2   30.28    2.14
  13  13  -4   -0.27    0.47
 -13  13   4    0.27    0.46
  13 -13  -4    1.40    0.86
  13  13  -4   -0.60    0.42
  13  13  -4    0.32    0.23
  13  13  -6   24.83   13.88
 -13  13   6   22.81   12.77
  13 -13  -6   22.42   13.16
  13  13  -6   26.18   14.64
   0  14   0   47.81    2.91
  14   0   0   64.46    4.05
   0  14   0   67.72    3.95
  14   0  -2   -0.37    0.54
   0  14   2    0.55    0.44
  14   0  -2    2.14    0.79
  14   0   2    0.27    0.57
   0  14  -2    2.55    0.66
   0  14   2    0.85    0.34
  14   0  -4   24.80    1.99
   0  14  -4   28.40    2.08
   0  14   4   27.20    2.01
  14   0  -4   28.87    2.31
  14   0   4   29.21    2.16
   0  14   4   27.72    2.04
  14   0  -6    0.55    0.64
   0  14  -6   -0.02    0.41
   0  14   6    0.28    0.28
  14   0  -6   -0.43    0.79
  14   0   6    0.46    0.48
   0  14   6   -0.28    0.62
  14   0  -8   73.47    3.43
   0  14  -8   71.91    2.20
   0  14   8   70.95    1.42
  14   0  -8   74.68    1.60
   0  14   8   69.43    1.42
  14   0 -10    1.94    1.38
   0  14 -10    1.94    1.09
   0  14  10    2.23    1.17
  14   0 -10    2.58    1.72
   0  14  10    2.12    1.09
  14  -1  -1   20.28    1.65
  14   1  -1   20.18    1.61
   1  14  -1   17.52    1.34
  -1  14  -1   21.52    1.61
   1  14   1   17.83    1.70
  -1  14   1   18.10    1.39
  14  -1  -1   20.14    1.60
  14  -1   1   19.10    1.56
  14   1  -1   21.38    1.92
  14   1   1   19.84    1.58
   1  14  -1   22.15    1.57
  -1  14  -1   20.93    1.53
   1  14   1   22.08    1.57
  -1  14   1   22.30    1.57
  14  -1  -3   15.22    1.32
  14   1  -3   20.00    2.85
   1  14  -3   20.16    1.52
  -1  14  -3   16.87    1.33
   1  14   3   19.88    1.52
  -1  14   3   20.45    1.58
  14  -1  -3   16.48    1.62
  14   1  -3   19.70    2.50
  14  -1   3   19.38    1.74
  14   1   3   16.20    1.57
   1  14   3   20.13    1.48
  -1  14   3   20.44    1.49
  14  -1  -5   14.32    1.57
  14   1  -5   13.71    1.57
   1  14  -5   15.67    1.49
  -1  14  -5   12.93    1.50
   1  14   5   12.58    2.66
  -1  14   5   14.52    3.22
  14  -1  -5   14.09    1.51
  14   1  -5   12.40    1.55
  14  -1   5   11.29    1.28
  14   1   5   13.31    1.40
   1  14   5   13.15    1.32
  -1  14   5   14.47    1.38
  14  -1  -7   16.61    3.35
  14   1  -7   13.83    1.31
   1  14  -7   17.11    1.51
  -1  14  -7   16.63    1.31
   1  14   7   17.49    1.40
  -1  14   7   14.67    1.25
  14  -1  -7   15.41    1.38
  14   1  -7   15.64    1.35
   1  14   7   21.24    3.59
  -1  14   7   22.11    2.72
  14  -1  -9   21.41    3.46
  14   1  -9   17.75    2.13
   1  14  -9   17.10    2.82
  -1  14  -9   16.52    2.61
   1  14   9   17.12    2.03
  -1  14   9   19.59    2.29
  14  -1  -9   18.48    2.19
  14   1  -9   17.71    2.02
   1  14   9   15.87    1.88
  -1  14   9   17.89    2.07
  14  -1 -11   14.73    3.59
  14   1 -11   15.49    4.34
   1  14 -11   12.68    2.88
  -1  14 -11   11.11    2.23
   1  14  11   13.23    3.02
  -1  14  11   14.28    3.44
  14  -1 -11   14.43    2.02
  14   1 -11   12.79    1.84
   1  14  11   11.30    2.90
  -1  14  11   12.28    2.71
  14   2   0   73.66    5.23
   2  14   0   75.51    5.14
  -2  14   0   77.91    5.32
  14  -2   0   76.26    5.29
  14   2   0   75.08    5.24
   2  14   0   70.70    4.82
  -2  14   0   78.87    5.33
  14  -2  -2   34.41    3.78
  14   2  -2   30.43    3.08
   2  14  -2   29.55    2.13
  -2  14  -2   31.37    2.60
   2  14   2   31.52    2.29
  -2  14   2   27.88    2.04
  14  -2  -2   29.43    2.36
  14   2  -2   33.26    3.15
  14  -2   2   31.06    2.34
  14   2   2   30.58    2.31
  -2  14  -2   39.24    2.70
   2  14   2   32.25    2.24
  -2  14   2   32.66    2.28
  14  -2  -4   32.30    2.52
  14   2  -4   33.17    2.53
   2  14  -4   29.49    2.20
  -2  14  -4   30.76    2.21
   2  14   4   29.94    2.19
  -2  14   4   34.73    2.58
  14  -2  -4   33.97    2.78
  14   2  -4   31.18    2.39
  14  -2   4   31.48    2.36
  14   2   4   31.43    2.31
   2  14   4   30.36    2.20
  -2  14   4   32.98    2.33
  14  -2  -6   22.34    4.69
  14   2  -6   16.32    1.71
   2  14  -6   20.40    1.90
  -2  14  -6   20.04    1.87
   2  14   6   19.97    1.89
  -2  14   6   18.48    1.76
  14  -2  -6   20.64    2.13
  14   2  -6   22.03    2.85
  14   2   6   20.84    1.99
   2  14   6   19.71    1.86
  -2  14   6   21.72    2.05
  14  -2  -8   28.17    1.49
  14   2  -8   27.32    1.36
   2  14  -8   26.93    0.91
  -2  14  -8   26.53    0.74
   2  14   8   26.63    0.85
  -2  14   8   24.84    1.96
  14  -2  -8   27.00    1.48
  14   2  -8   26.32    1.07
   2  14   8   26.76    1.03
  -2  14   8   26.98    0.98
  14  -2 -10   14.30    6.32
  14   2 -10   17.29    7.68
   2  14 -10   14.62    6.85
  -2  14 -10   16.45    7.14
   2  14  10   14.49    6.78
  -2  14  10   15.17    7.46
  14  -2 -10   15.66    6.88
  14   2 -10   14.72    6.44
   2  14  10   15.18    6.63
  -2  14  10   18.46    8.06
  14  -3  -1   40.21    4.36
  14   3  -1   44.77    3.15
   3  14  -1   47.37    3.30
   3  14   1   42.66    2.99
  -3  14  -1   47.97    3.36
  -3  14   1   44.61    3.14
  14  -3  -1   41.43    3.24
  14  -3   1   39.95    2.94
  14   3  -1   44.83    4.22
  14   3   1   45.86    3.64
   3  14  -1   40.82    2.79
  -3  14  -1   43.01    2.92
   3  14   1   45.35    3.13
  -3  14   1   45.35    3.09
  14  -3  -3   27.26    2.17
  14   3  -3   25.85    2.01
   3  14  -3   28.35    2.06
  -3  14  -3   27.70    2.00
   3  14   3   27.98    2.07
  -3  14   3   26.59    1.97
  14  -3  -3   27.45    2.38
  14   3  -3   29.14    2.99
  14  -3   3   27.14    2.03
  14   3   3   26.74    2.40
   3  14   3   26.83    1.91
  -3  14   3   27.97    2.02
  14  -3  -5   29.77    3.43
  14   3  -5   33.84    3.14
   3  14  -5   27.60    2.51
  -3  14  -5   27.31    2.49
   3  14   5   27.39    2.49
  -3  14   5   27.12    2.49
  14  -3  -5   27.29    3.21
  14   3  -5   29.34    3.88
  14   3   5   28.97    2.66
   3  14   5   24.84    2.26
  -3  14   5   27.94    2.51
  14  -3  -7   29.24    2.50
  14   3  -7   25.00    2.06
   3  14  -7   26.22    1.99
  -3  14  -7   29.64    2.19
   3  14   7   23.59    1.82
  -3  14   7   23.10    2.29
  14  -3  -7   25.66    3.24
  14   3  -7   25.44    2.05
  14   3   7   24.35    1.92
   3  14   7   23.64    1.86
  -3  14   7   27.66    3.90
  14  -3  -9   25.30    3.10
  14   3  -9   24.33    2.91
   3  14  -9   25.27    2.80
  -3  14  -9   20.71    3.50
   3  14   9   20.79    2.32
  -3  14   9   21.76    4.00
  14  -3  -9   22.82    2.61
  14   3  -9   24.59    3.63
   3  14   9   22.90    3.78
  -3  14   9   18.88    2.19
  14  -3 -11    9.27    6.36
  14   3 -11    7.69    4.50
   3  14 -11    8.69    5.22
   3  14  11    8.88    5.28
  -3  14  11   10.97    6.45
  14  -3 -11    8.20    5.28
  14   3 -11    9.46    5.71
   3  14  11    9.86    5.91
  -3  14  11    9.85    6.16
  14   4   0    1.30    0.47
   4  14   0    1.75    0.59
  -4  14   0    1.08    0.71
  14  -4   0    0.49    0.70
  14   4   0    1.68    0.53
   4  14   0    1.52    0.51
  -4  14   0    1.36    0.24
  14  -4  -2   75.27    5.70
  14   4  -2   77.10    5.37
   4  14  -2   80.03    5.55
   4  14   2   82.66    6.00
  -4  14  -2   80.30    5.54
  -4  14   2   79.62    5.79
  14  -4  -2   77.42    5.59
  14  -4   2   74.30    5.31
  14   4  -2   78.22    5.72
  14   4   2   76.67    5.43
   4  14  -2   95.20    6.52
  -4  14  -2   78.87    5.38
   4  14   2   79.04    5.41
  -4  14   2   78.76    5.41
  14  -4  -4    0.66    0.68
  14   4  -4    0.20    0.36
   4  14  -4    0.79    0.32
  -4  14  -4    0.83    0.38
   4  14   4    0.00    0.56
  -4  14   4   -0.04    0.22
  14  -4  -4    0.98    1.03
  14   4  -4    0.54    0.71
  14  -4   4    0.29    0.25
   4  14   4    0.41    0.50
  -4  14   4    0.62    0.35
  14  -4  -6   64.13    5.00
  14   4  -6   68.20    5.01
   4  14  -6   59.57    5.32
  -4  14  -6   59.78    4.23
   4  14   6   57.17    4.11
  -4  14   6   58.84    4.30
  14  -4  -6   62.71    5.04
  14   4  -6   61.70    4.50
  14   4   6   64.90    4.70
   4  14   6   66.18    4.71
  -4  14   6   63.87    4.55
  14  -4  -8    0.33    0.76
  14   4  -8    0.93    0.73
   4  14  -8   -0.38    0.41
  -4  14  -8   -0.23    0.48
   4  14   8    0.17    0.49
  -4  14   8    0.55    0.63
  14  -4  -8    0.20    0.40
  14   4  -8    0.05    0.25
  14   4   8    0.16    0.33
   4  14   8   -0.05    0.82
  -4  14   8    2.06    1.18
  14  -4 -10   24.87   10.87
  14   4 -10   27.30   11.86
   4  14 -10   30.22   13.10
   4  14  10   29.35   12.76
  -4  14  10   32.10   13.93
  14  -4 -10   31.83   14.09
  14   4 -10   26.71   11.97
   4  14  10   23.52   10.26
  -4  14  10   21.68   10.37
  14   5  -1   36.25    2.65
   5  14  -1   34.71    2.49
   5  14   1   37.70    2.71
  -5  14  -1   35.67    2.53
  -5  14   1   36.87    2.64
  14  -5  -1   33.83    2.91
  14  -5   1   35.54    2.74
  14   5  -1   35.36    3.73
  14   5   1   34.72    2.67
   5  14  -1   33.81    2.36
  -5  14  -1   38.01    2.64
   5  14   1   37.72    2.64
  -5  14   1   38.73    2.76
  14   5  -3   34.60    3.34
   5  14  -3   36.59    3.30
   5  14   3   32.51    2.91
  -5  14  -3   32.95    2.95
  -5  14   3   34.03    3.09
  14  -5  -3   34.65    3.45
  14  -5   3   33.79    3.05
  14   5  -3   28.13    2.70
  14   5   3   36.67    3.35
   5  14   3   34.82    3.12
  -5  14   3   33.50    3.00
  14   5  -5   31.75    4.03
   5  14  -5   31.29    2.86
  -5  14  -5   30.79    2.82
   5  14   5   32.05    2.90
  -5  14   5   31.26    2.88
  14  -5  -5   31.22    3.05
  14   5   5   32.09    2.97
   5  14  -5   32.05    3.00
   5  14   5   29.65    2.72
  -5  14   5   34.21    3.11
  14  -5  -7   19.36    4.16
  14   5  -7   22.03    1.22
   5  14  -7   21.90    0.83
  -5  14  -7   18.48    0.68
   5  14   7   19.31    0.75
  -5  14   7   19.50    0.97
  14  -5  -7   21.55    2.25
  14   5  -7 1392.51  592.92
  14   5   7   19.74    0.83
   5  14   7   20.24    0.88
  -5  14   7   21.15    3.04
  14  -5  -9   15.22    3.52
  14   5  -9   12.24    2.95
   5  14  -9   17.18    2.33
  -5  14  -9   11.56    0.56
   5  14   9   13.49    0.71
  -5  14   9   17.48    1.06
  14  -5  -9   16.91    2.77
  14   5  -9   16.70    1.11
   5  14   9   18.23    1.04
  -5  14   9   14.16    0.96
  14   6   0   17.82    1.57
   6  14   0   18.63    1.49
  -6  14   0   14.48    1.16
 -14   6   0   13.54    3.83
  14  -6   0   13.81    1.27
  14   6   0   16.64    1.64
   6  14   0   17.32    1.28
  -6  14   0   16.50    1.20
  14   6  -2   25.95    2.46
   6  14  -2   25.88    2.37
   6  14   2   25.42    2.31
  -6  14  -2   22.05    2.04
  -6  14   2   26.37    2.47
 -14   6   2   27.17    2.57
  14  -6  -2   28.41    3.02
  14  -6   2   24.83    2.36
  14   6  -2   26.13    2.43
  14   6   2   23.60    2.22
   6  14  -2   27.28    2.42
  -6  14  -2   26.56    2.33
   6  14   2   27.83    2.51
  -6  14   2   27.18    2.40
  14   6  -4   40.64    4.00
   6  14  -4   41.41    3.71
   6  14   4   44.02    3.92
  -6  14  -4   39.46    3.50
  -6  14   4   41.43    3.74
  14  -6  -4   42.86    4.15
  14   6  -4   44.75    4.11
  14   6   4   43.99    3.96
   6  14  -4   46.80    4.36
   6  14   4   41.56    3.70
  -6  14   4   44.27    4.10
  14   6  -6   21.33    3.93
   6  14  -6   20.64    0.81
  -6  14  -6   23.59    0.74
   6  14   6   20.18    1.15
  -6  14   6   23.65    0.98
  14  -6  -6   26.00    1.82
  14   6  -6   22.50    2.88
  14   6   6   20.35    0.96
   6  14  -6   18.20    2.68
   6  14   6   20.41    0.75
  -6  14   6   21.29    0.82
  14   6  -8   18.73    2.20
   6  14  -8   17.68    2.38
  -6  14  -8   16.71    1.86
   6  14   8   14.68    1.69
  -6  14   8   15.49    3.66
   6 -14  -8   19.29    4.38
  14  -6  -8   15.79    1.97
  14   6  -8   19.18    3.07
  14   6   8   16.23    1.87
   6  14   8   17.11    3.59
  -6  14   8   16.62    1.96
  14  -6 -10   16.20    2.35
  14   6 -10   11.82    3.45
   6  14 -10   12.89    3.01
  -6  14  10   13.42    3.21
   6 -14 -10   17.41    4.47
  14  -6 -10   14.79    4.09
  14   6 -10   17.36    2.42
   6  14  10   15.89    3.16
  -6  14  10   10.35    3.03
  14   7  -1   20.25    2.14
   7  14  -1   16.80    3.17
   7  14   1   21.19    1.96
  -7  14  -1   16.86    2.67
  -7  14   1   12.63    2.60
 -14   7   1   19.15    1.91
 -14   7  -1   13.71    1.95
   7 -14  -1   19.54    2.07
   7 -14   1   17.76    4.06
  14  -7  -1   18.73    2.47
  14  -7   1   19.16    1.99
  14   7  -1   17.58    1.73
  14   7   1   16.85    1.69
   7  14  -1   20.00    1.99
   7  14  -1   16.98    1.55
  -7  14  -1   21.33    1.88
   7  14   1   18.69    1.68
  -7  14   1   19.28    1.72
  14   7  -3   22.88    2.15
   7  14  -3   24.29    2.24
   7  14   3   24.83    2.29
  -7  14  -3   24.06    2.22
  -7  14   3   23.35    2.19
 -14   7   3   20.64    2.86
   7 -14  -3   25.72    2.54
  14  -7  -3   23.71    2.31
  14   7  -3   22.81    4.00
  14   7   3   25.68    2.56
   7  14  -3   25.27    2.43
  -7  14  -3   24.03    2.14
   7  14   3   24.43    2.21
  -7  14   3   29.60    2.65
  14   7  -5   32.10    1.18
   7  14  -5   28.85    2.22
   7  14   5   33.69    0.95
  -7  14  -5   32.31    0.87
  -7  14   5   32.88    1.37
 -14   7   5   28.19    1.18
   7 -14  -5   32.36    1.92
  14   7  -5   33.80    1.23
  14   7   5   31.59    1.34
   7  14  -5   27.89    0.97
   7  14   5   28.65    1.24
  -7  14   5   30.87    0.93
  14   7  -7   16.16    3.62
   7  14  -7   18.13    2.04
  -7  14  -7    9.34    2.24
   7  14   7   11.95    2.79
  -7  14   7   11.16    3.38
   7 -14  -7   18.23    3.90
  14  -7  -7   13.61    3.26
  14   7  -7   11.53    2.85
   7  14  -7   10.60    1.90
  14   7   7   13.51    2.24
   7  14   7   13.91    2.75
  -7  14   7   16.49    2.00
  14   7  -9    8.31    2.03
   7  14  -9    9.22    2.28
  -7  14   9    8.86    2.44
   7 -14  -9   11.48    2.70
  14  -7  -9    8.51    2.22
  14   7  -9    6.72    2.41
   7  14   9   11.36    1.72
  -7  14   9   10.42    1.59
  14   8   0   46.98    4.22
   8  14   0   45.95    4.32
  -8  14   0   43.48    3.91
 -14   8   0   44.52    4.01
   8 -14   0   45.84    4.73
  14  -8   0   42.22    4.12
  14   8   0   50.67    4.56
   8  14   0   52.78    4.72
   8  14   0   50.81    4.46
  -8  14   0   47.76    4.18
  14   8  -2    0.56    0.61
   8  14  -2   -0.29    0.50
   8  14   2    0.23    0.20
  -8  14  -2    0.26    0.27
  -8  14   2    0.64    0.43
 -14   8   2    0.41    0.51
   8 -14  -2    0.76    0.47
  14  -8  -2    1.00    0.42
  14  -8   2    0.65    0.60
  14   8  -2    0.80    0.36
  14   8   2    0.54    0.41
   8  14  -2    0.33    0.26
   8  14  -2    0.40    0.24
  -8  14  -2    0.20    0.13
   8  14   2    0.64    0.43
  -8  14   2    0.38    0.31
  14   8  -4   65.08    1.57
   8  14  -4   65.83    1.45
   8  14   4   65.52    1.21
  -8  14  -4   67.55    1.25
  -8  14   4   64.77    1.29
 -14   8   4   61.12    2.07
   8 -14  -4   64.01    1.75
  14  -8  -4   64.95    2.37
  14   8  -4   62.40    2.41
  14   8   4   64.87    1.41
   8  14  -4   62.17    2.15
  -8  14   4   65.11    1.07
  14   8  -6    0.37    0.33
   8  14  -6    0.45    0.57
  -8  14  -6    0.19    0.32
   8  14   6   -0.04    0.31
  -8  14   6   -0.35    0.60
 -14   8   6    0.62    0.52
   8 -14  -6   -0.62    0.82
  14  -8  -6    0.89    0.63
  14   8  -6    0.78    0.70
   8  14  -6    0.42    0.40
  14   8   6    0.31    0.39
   8  14   6    0.83    0.60
  -8  14   6    0.78    0.52
  14   8  -8   20.06    9.38
   8  14  -8   26.09   11.33
  -8  14   8   19.20    8.80
   8 -14  -8   25.71   11.58
  14  -8  -8   18.92    8.88
  14   8  -8   22.61    9.84
   8  14   8   22.69    9.85
  -8  14   8   24.39   10.60
  14   9  -1   14.80    2.42
   9  14  -1   15.42    2.87
   9  14   1   15.39    2.53
  -9  14  -1   15.96    1.31
  -9  14   1   18.84    1.59
 -14   9   1   17.12    1.50
   9 -14  -1   15.12    3.12
  14  -9  -1   18.43    3.07
  14  -9   1   15.41    1.53
  14   9  -1   16.20    3.99
  14   9   1   19.01    1.60
   9  14  -1   18.78    2.43
   9  14   1   18.85    1.59
   9  14  -1   15.21    2.02
  -9  14  -1   17.52    1.28
   9  14   1   15.32    1.17
  -9  14   1   16.66    1.25
  14   9  -3   17.12    0.83
   9  14  -3   15.47    0.96
   9  14   3   14.05    0.68
  -9  14  -3   15.86    1.00
  -9  14   3   12.45    3.18
 -14   9   3   15.40    0.96
   9 -14  -3   15.80    3.43
  14  -9  -3   13.23    3.27
  14   9  -3   12.66    3.07
  14   9   3   16.62    0.87
   9  14  -3   15.26    2.67
  -9  14  -3   15.42    0.42
   9  14   3   15.71    1.59
  -9  14   3   17.06    2.50
  14   9  -5   18.81    8.44
   9  14  -5   17.78    7.60
   9  14   5   19.48    8.28
  -9  14  -5   20.23    8.60
  -9  14   5   20.88    8.97
 -14   9   5   18.27    7.82
   9 -14  -5   19.12    8.23
  14  -9  -5   17.83    8.18
  14   9  -5   15.85    7.22
   9  14  -5   14.44    6.53
  14   9   5   16.67    7.53
   9  14   5   20.08    8.54
  -9  14   5   19.48    8.30
  14   9  -7    7.29    3.34
   9  14  -7    7.67    3.82
  -9  14   7    7.19    3.57
 -14   9   7    6.66    3.42
   9 -14  -7    8.18    4.09
  14  -9  -7    7.45    3.43
  14   9  -7    7.07    3.62
   9  14  -7    5.37    2.94
   9  14   7    7.02    3.22
  -9  14   7    5.16    3.20
  14   9  -9    8.81    5.26
   9  14  -9    8.64    5.04
   9 -14  -9    9.11    5.77
  14  -9  -9   11.67    6.87
   9  14   9    7.72    4.38
  -9  14   9    4.78    3.52
  14  10   0   10.45    1.68
  10  14   0   10.41    0.60
 -10  14   0    8.39    2.32
 -14  10   0    7.59    2.31
  10 -14   0   10.69    1.97
  14 -10   0   13.11    1.65
  14  10   0   10.78    2.45
  10  14   0   10.72    2.44
  10  14   0   11.00    1.16
  14  10  -2   11.33    5.17
  10  14  -2   12.60    1.64
  10  14   2   10.03    1.78
 -10  14  -2   11.77    5.02
 -10  14   2    9.83    4.86
 -14  10   2   10.18    5.00
  10 -14  -2   10.63    2.50
  14 -10  -2   11.88    1.66
  14  10  -2   11.52    2.84
  14  10   2   10.31    1.73
  10  14  -2   12.07    2.50
  10  14  -2   10.41    1.40
  10  14   2   11.69    2.18
  14  10  -4   11.30    2.85
  10  14  -4   13.85    3.26
  10  14   4    9.69    2.46
 -10  14  -4   13.44    1.55
 -10  14   4   10.30    3.50
 -14  10   4   15.58    1.88
  10 -14  -4   11.64    1.90
  14 -10  -4   14.35    2.55
  14  10  -4   10.43    3.17
  10  14  -4   12.16    2.71
  14  10   4   13.08    3.07
  10  14   4   13.60    2.39
 -10  14   4   13.28    1.57
  14  10  -6    9.13    2.67
  10  14  -6   13.90    1.70
 -10  14   6    8.74    2.44
 -14  10   6    8.21    3.09
  10 -14  -6   12.30    2.83
  14 -10  -6   11.62    2.03
  14  10  -6    9.06    2.58
  10  14  -6    9.08    2.35
  14  10   6   10.82    2.54
  10  14   6   11.26    2.71
 -10  14   6   10.79    4.72
  14  10  -8   13.73    8.07
  10  14  -8    9.69    5.64
 -10  14   8    9.67    6.17
 -14  10   8    7.89    4.95
  10 -14  -8   13.14    7.82
  14 -10  -8   11.21    6.65
  14  10  -8    9.85    5.77
  10  14  -8    9.54    5.74
  10  14   8    9.25    5.41
  14  11  -1    9.30    4.42
  14  11   1    7.52    2.09
  11  14  -1    9.64    4.50
  11  14   1   10.87    4.64
 -11  14  -1    7.62    4.17
 -11  14   1    7.67    4.10
 -14  11   1    6.84    3.78
  11 -14  -1    8.64    4.36
  14 -11  -1    9.05    4.46
  14  11  -1    8.68    4.37
  14  11   1   10.71    5.19
  11  14  -1    9.51    4.72
  11  14   1   11.13    5.26
  11  14  -1   10.28    4.59
  11  14   1   11.89    5.14
  14  11  -3   11.05    1.98
  11  14  -3   12.31    2.50
  11  14   3    7.53    1.82
 -11  14  -3   14.11    1.75
 -11  14   3   10.06    3.09
 -14  11   3   13.61    2.25
  11 -14  -3   13.49    3.57
  14 -11  -3   15.51    3.04
  14  11  -3    8.96    2.93
  11  14  -3   13.31    1.69
  14  11   3   12.12    2.45
  11  14  -3   11.22    1.89
  11  14   3   12.95    2.05
  14  11  -5    7.88    3.81
  11  14  -5    6.24    3.09
 -11  14   5    8.94    3.93
 -14  11   5    5.28    3.07
  11 -14  -5    8.53    4.09
  14 -11  -5    7.06    3.33
  14  11  -5    6.87    3.41
  11  14  -5    7.71    3.72
  14  11   5    9.42    4.64
  11  14   5    6.81    3.10
  14  11  -7    9.95    5.91
  11  14  -7    9.60    5.64
 -11  14   7    5.83    3.99
 -14  11   7    7.52    5.11
  11 -14  -7    9.14    6.04
  14 -11  -7   11.10    6.50
  14  11  -7    7.54    4.83
  11  14  -7    7.63    4.69
  11  14   7    8.65    5.22
  14  12   0    0.51    0.28
 -12  14   0    0.77    0.54
  14 -12   0    1.17    0.46
  14  12   0    0.77    0.31
  12  14   0    0.80    0.46
  12  14   0    0.96    0.20
  14  12  -2   13.48    3.25
  12  14  -2   19.48    0.83
  12  14   2   18.86    0.71
 -12  14  -2   21.28    0.92
 -12  14   2   19.48    1.26
 -14  12   2   12.79    3.95
  12 -14  -2   13.43    3.34
  14 -12  -2   17.67    3.30
  14  12  -2   19.77    1.75
  12  14  -2   19.72    1.59
  14  12   2   20.81    0.97
  12  14   2   22.43    1.20
  12  14  -2   17.99    0.54
  12  14   2   18.56    0.60
  14  12  -4    0.45    0.34
  12  14  -4    0.75    0.49
 -12  14   4    0.51    0.46
  12 -14  -4    0.67    0.41
  14 -12  -4   -0.79    0.61
  14  12  -4    0.17    0.25
  12  14  -4   -0.60    0.55
  14  12   4    0.47    0.61
  12  14  -4    0.14    0.20
  12  14   4    0.49    0.40
  14  12  -6   12.63    7.54
  12  14  -6   16.12    9.34
 -12  14   6   10.26    7.04
 -14  12   6    9.62    6.47
  12 -14  -6   15.01    9.08
  14 -12  -6   16.76    9.65
  14  12  -6   10.16    6.38
  12  14  -6   14.97    8.39
  12  14   6   11.70    7.22
  14  13  -1   13.97    6.80
  13  14  -1   17.82    7.74
  14  13   1   16.19    7.03
  13  14   1   14.63    6.79
 -13  14  -1   19.39    8.43
 -13  14   1   18.67    8.17
 -14  13   1   15.76    6.88
  13 -14  -1   14.64    6.97
  14 -13  -1   12.67    6.54
  14  13  -1   13.62    6.39
  13  14  -1   20.83    9.09
  14  13   1   12.98    6.29
  13  14   1   13.48    6.73
  13  14  -1   15.80    7.00
  13  14   1   14.18    6.29
  14  13  -3    3.74    1.08
  13  14  -3    3.67    1.00
 -13  14   3    2.68    1.26
 -14  13   3    2.59    0.73
  13 -14  -3    4.92    1.20
  14 -13  -3    4.66    1.08
  14  13  -3    4.35    1.71
  13  14  -3    3.16    1.14
  14  13   3    2.90    0.89
  13  14   3    3.16    1.11
  13  14  -3    2.63    0.58
  13  14   3    4.06    0.87
  14  13  -5    9.42    5.48
  13  14  -5   11.65    6.73
 -13  14   5    5.00    3.30
 -14  13   5    6.20    4.07
  13 -14  -5    9.07    6.36
  14 -13  -5   10.31    6.25
  14  13  -5    8.61    5.23
  13  14  -5    8.33    5.32
  13  14  -5   17.38   10.44
  14  14   0    8.46    5.28
 -14  14   0    5.71    4.37
  14  14   0   13.01    7.40
  14  14  -2    5.03    3.19
 -14  14   2    3.85    2.95
  14 -14  -2    7.80    4.54
  14  14  -2    6.34    4.13
  14  14   2    6.63    4.21
   0  15  -1    0.25    0.46
   0  15   1    0.37    0.23
  15   0  -1    0.28    0.58
  15   0   1    0.76    0.57
   0  15  -1    0.36    0.32
   0  15   1    0.03    0.21
  15   0  -3    1.44    0.58
   0  15  -3    1.06    0.32
   0  15   3    2.35    0.48
  15   0  -3    0.55    0.58
  15   0   3    0.90    0.30
   0  15   3    0.76    0.36
  15   0  -5    5.35    1.29
   0  15  -5    5.23    1.00
   0  15   5    4.26    1.13
  15   0  -5    6.34    1.89
  15   0   5    4.70    1.28
   0  15   5    4.15    0.59
  15   0  -7    1.05    0.80
   0  15  -7    0.23    0.25
   0  15   7    0.79    0.57
  15   0  -7   -0.12    0.67
  15   0  -9    6.05    1.88
   0  15  -9    4.22    0.75
   0  15   9    6.87    1.44
  15   0  -9    5.08    1.36
   0  15   9    5.37    0.66
   1  15   0   97.16    6.67
  -1  15   0   97.35    6.69
  15  -1   0   91.04    6.35
  15   1   0   89.90    6.60
   1  15   0  100.96    6.86
  -1  15   0  102.10    6.96
  15  -1  -2    0.78    0.26
  15   1  -2    0.13    0.29
   1  15  -2    0.25    0.33
  -1  15  -2    0.25    0.21
   1  15   2    0.60    0.52
  -1  15   2    0.52    0.26
  15  -1  -2    0.75    0.55
  15   1  -2    0.95    0.64
  15  -1   2    0.45    0.41
  15   1   2   -0.95    0.61
   1  15  -2   -0.12    0.37
  -1  15  -2   -0.05    0.29
   1  15   2    0.53    0.29
  -1  15   2    0.21    0.24
  15  -1  -4   40.81    4.19
  15   1  -4   42.37    3.88
   1  15  -4   40.11    3.58
  -1  15  -4   45.33    4.04
   1  15   4   42.79    3.84
  -1  15   4   43.29    3.89
  15  -1  -4   40.75    3.92
  15   1  -4   44.86    4.17
  15  -1   4   41.86    3.76
  15   1   4   40.36    3.67
   1  15   4   42.39    3.75
  -1  15   4   43.08    3.83
  15  -1  -6    0.22    0.65
  15   1  -6    1.44    0.34
   1  15  -6    0.56    0.17
  -1  15  -6    0.37    0.38
   1  15   6    0.79    0.42
  -1  15   6    1.15    0.45
  15  -1  -6    1.05    0.77
  15   1  -6    1.47    0.43
  15   1   6    1.36    0.30
   1  15   6    0.94    0.42
  -1  15   6    1.65    0.48
  15  -1  -8   63.12    6.93
  15   1  -8   63.06    6.79
   1  15  -8   64.84    6.90
  -1  15  -8   64.14    6.80
   1  15   8   65.51    7.00
  -1  15   8   63.46    6.78
  15  -1  -8   62.21    6.85
  15   1  -8   70.57    7.56
   1  15   8   61.12    6.53
  -1  15   8   65.44    6.98
  15  -1 -10    2.54    0.72
  15   1 -10    2.22    0.69
   1  15 -10    0.77    0.36
  -1  15 -10    0.91    0.32
   1  15  10   -0.10    0.62
  -1  15  10    1.28    0.57
  15  -1 -10    1.34    0.51
  15   1 -10    1.66    0.74
   1  15  10    2.22    0.62
  -1  15  10    0.55    0.48
  15   2  -1   34.68    2.58
   2  15  -1   35.45    2.53
   2  15   1   33.01    2.69
  -2  15  -1   39.98    2.87
  -2  15   1   36.59    2.66
  15  -2  -1   35.59    2.68
  15  -2   1   32.61    3.10
  15   2  -1   34.89    2.80
  15   2   1   40.89    3.12
   2  15  -1   36.72    2.55
  -2  15  -1   35.14    2.44
   2  15   1   36.01    2.51
  -2  15   1   38.84    2.78
  15  -2  -3   20.14    2.02
  15   2  -3   22.07    2.10
   2  15  -3   23.02    2.14
  -2  15  -3   23.92    2.17
   2  15   3   25.14    2.34
  -2  15   3   20.89    1.95
  15  -2  -3   21.81    2.37
  15   2  -3   20.35    2.34
  15  -2   3   22.56    2.43
  15   2   3   21.66    2.05
   2  15   3   22.84    2.05
  -2  15   3   23.88    2.13
  15  -2  -5   12.64    1.67
  15   2  -5   14.43    3.08
   2  15  -5   12.96    2.09
  -2  15  -5   11.02    0.95
   2  15   5   12.61    1.13
  -2  15   5   12.64    2.67
  15  -2  -5   12.12    3.38
  15   2  -5   13.25    1.58
  15   2   5   12.85    2.57
   2  15   5   13.88    2.35
  -2  15   5   10.78    1.48
  15  -2  -7   26.29   11.95
  15   2  -7   21.00    8.96
   2  15  -7   23.23    9.88
  -2  15  -7   24.47   10.40
   2  15   7   25.33   10.77
  -2  15   7   26.30   11.18
  15  -2  -7   18.24    8.17
  15   2  -7   24.77   10.54
   2  15   7   21.01    8.95
  -2  15   7   23.13    9.83
  15  -2  -9   17.08    8.75
  15   2  -9   18.63    8.12
   2  15  -9   16.05    6.99
  -2  15  -9   15.14    6.60
   2  15   9   17.67    7.69
  -2  15   9   12.98    5.96
  15  -2  -9   15.81    6.92
  15   2  -9   18.19    7.96
   2  15   9   14.56    7.07
  -2  15   9   13.58    5.94
   3  15   0   11.88    1.18
  -3  15   0   10.66    1.08
  15  -3   0   10.93    1.20
  15   3   0    9.26    2.13
   3  15   0   11.24    1.63
  -3  15   0   10.31    0.98
  15  -3  -2   13.59    2.98
  15   3  -2   11.47    1.20
   3  15  -2   15.12    1.47
   3  15   2   12.10    1.47
  -3  15  -2   14.05    1.35
  -3  15   2   12.10    1.22
  15  -3  -2   11.84    1.54
  15  -3   2   13.94    1.43
  15   3  -2   13.33    1.38
  15   3   2   12.43    1.93
   3  15  -2   14.51    2.41
  -3  15  -2    9.85    0.93
   3  15   2   15.57    1.47
  -3  15   2   13.22    1.22
  15  -3  -4   10.90    3.40
  15   3  -4   12.43    1.38
   3  15  -4   16.25    1.55
  -3  15  -4   15.12    1.49
   3  15   4   14.08    1.38
  -3  15   4   15.00    3.50
  15  -3  -4   15.82    1.97
  15   3  -4   15.48    2.66
  15  -3   4   15.56    1.55
  15   3   4   16.48    1.61
   3  15   4   14.88    1.52
  -3  15   4   14.00    1.33
  15  -3  -6   14.67    0.92
  15   3  -6   12.69    3.42
   3  15  -6   13.90    2.19
  -3  15  -6   11.16    1.16
   3  15   6   11.31    2.41
  -3  15   6   10.70    0.89
  15  -3  -6   14.08    1.01
  15   3  -6   13.03    1.46
  15   3   6   13.83    0.70
   3  15   6   12.73    0.79
  -3  15   6   13.11    2.24
  15  -3  -8    7.81    1.65
  15   3  -8    6.60    1.40
   3  15  -8    6.37    0.87
  -3  15  -8    6.42    1.14
   3  15   8    6.29    1.56
  -3  15   8    6.87    1.90
  15  -3  -8    6.41    1.85
  15   3  -8    6.49    2.19
   3  15   8    7.94    2.03
  -3  15   8    5.59    1.20
  15  -3 -10    5.72    3.64
  15   3 -10    4.32    2.72
   3  15 -10    4.85    2.89
  -3  15 -10    4.78    2.78
   3  15  10    4.61    3.10
  -3  15  10    6.16    3.53
  15  -3 -10    4.41    2.84
  15   3 -10    5.12    3.14
   3  15  10    4.91    2.82
  -3  15  10    3.59    2.33
  15   4  -1   53.26    4.93
   4  15  -1   57.14    5.14
   4  15   1   55.59    4.89
  -4  15  -1   55.66    4.91
  -4  15   1   53.61    4.73
  15  -4  -1   51.35    4.75
  15  -4   1   55.34    5.02
  15   4  -1   60.16    5.50
  15   4   1   57.14    5.08
   4  15  -1   53.79    4.68
  -4  15  -1   54.52    4.74
   4  15   1   56.80    4.93
  -4  15   1   57.17    4.98
  15  -4  -3   45.11    4.11
  15   4  -3   50.07    4.54
   4  15  -3   53.10    4.72
  -4  15  -3   52.78    4.70
   4  15   3   51.34    4.56
  -4  15   3   50.55    4.52
  15  -4  -3   56.70    5.18
  15   4  -3   50.76    4.69
  15   4   3   50.31    4.57
   4  15   3   50.31    4.43
  -4  15   3   53.09    4.66
  15  -4  -5   44.14    3.64
  15   4  -5   44.40    3.43
   4  15  -5   44.79    3.51
  -4  15  -5   44.03    3.25
   4  15   5   41.25    3.01
  -4  15   5   42.43    3.13
  15  -4  -5   43.41    3.97
  15   4   5   42.72    3.28
   4  15   5   40.43    2.93
  -4  15   5   47.39    3.43
  15  -4  -7   33.49   14.32
  15   4  -7   36.24   15.44
   4  15  -7   31.33   13.30
  -4  15  -7   30.47   12.93
   4  15   7   31.61   13.42
  -4  15   7   32.73   13.93
  15  -4  -7   37.40   16.14
  15   4  -7   36.80   15.63
  15   4   7   31.56   13.41
   4  15   7   32.31   13.72
  -4  15   7   31.63   13.43
  15  -4  -9   23.28   10.19
  15   4  -9   27.20   11.82
   4  15  -9   27.68   12.01
  -4  15  -9   28.77   12.47
   4  15   9   25.21   10.95
  -4  15   9   23.83   10.88
  15  -4  -9   27.35   11.88
  15   4  -9   28.51   12.38
   4  15   9   26.91   12.31
  -4  15   9   26.79   11.64
   5  15   0    9.46    2.17
  -5  15   0    7.57    1.95
  15  -5   0    7.41    2.12
  15   5   0    8.45    2.44
   5  15   0   10.29    1.89
  -5  15   0    9.97    1.81
  15  -5  -2   12.96    3.67
  15   5  -2   12.74    2.25
   5  15  -2   16.17    1.56
   5  15   2   14.38    1.39
  -5  15  -2   15.65    1.51
  -5  15   2   16.27    1.84
  15  -5  -2   17.45    1.83
  15  -5   2   15.02    1.66
  15   5  -2   13.84    1.80
  15   5   2   12.88    1.38
  -5  15  -2   14.39    1.32
  -5  15   2   15.57    1.47
  15  -5  -4   14.41    3.42
  15   5  -4   13.71    3.76
   5  15  -4   14.14    2.14
  -5  15  -4   13.16    1.11
   5  15   4   13.88    1.16
  -5  15   4   13.10    3.03
  15  -5  -4   14.19    3.99
  15   5  -4   14.00    3.64
  15   5   4   14.59    1.27
   5  15   4   12.19    1.07
  -5  15   4   17.03    2.32
  15  -5  -6    6.60    3.45
  15   5  -6    8.06    3.97
   5  15  -6    8.26    3.78
  -5  15  -6    7.29    3.12
   5  15   6    7.12    3.46
  -5  15   6    7.51    3.82
  15  -5  -6   10.75    4.71
  15   5  -6    6.93    3.62
  15   5   6    7.59    3.83
   5  15   6    7.56    3.67
  -5  15   6    6.88    3.17
  15  -5  -8    7.11    2.23
  15   5  -8    7.86    2.05
   5  15  -8    9.91    0.62
  -5  15  -8    6.67    1.63
   5  15   8    8.15    0.78
  -5  15   8    7.33    1.98
  15  -5  -8    8.67    2.34
  15   5  -8  658.83  342.89
  15   5   8    7.65    2.21
   5  15   8    8.77    1.27
  -5  15   8   10.00    0.81
  15   6  -1   13.88    2.44
   6  15  -1   12.44    1.27
   6  15   1   13.25    1.66
  -6  15  -1   13.13    1.31
  -6  15   1   14.15    1.42
  15  -6  -1   14.39    1.51
  15  -6   1   10.64    3.24
  15   6  -1   13.27    1.41
  15   6   1   11.17    2.98
   6  15  -1   12.36    1.15
  -6  15  -1   15.71    1.43
   6  15   1   16.40    1.52
  -6  15   1   13.71    1.26
  15   6  -3   21.61    2.58
   6  15  -3   24.44    1.90
   6  15   3   23.89    1.82
  -6  15  -3   25.48    1.96
  -6  15   3   24.64    3.04
  15  -6  -3   24.10    2.95
  15   6  -3   26.29    2.10
  15   6   3   23.02    2.03
   6  15  -3   22.24    1.96
  -6  15  -3   26.41    1.90
   6  15   3   21.53    1.72
  -6  15   3   25.72    1.89
  15   6  -5   30.26    1.13
   6  15  -5   29.84    1.17
  -6  15  -5   34.06    0.88
   6  15   5   29.02    0.87
  -6  15   5   31.56    1.29
  15  -6  -5   31.10    1.43
  15   6  -5   30.01    1.24
  15   6   5   30.40    1.55
   6  15  -5   29.25    0.98
   6  15   5   30.06    0.87
  -6  15   5   28.81    0.87
  15  -6  -7   11.13    4.28
  15   6  -7   10.14    2.02
   6  15  -7   12.87    0.60
  -6  15  -7   11.29    0.62
   6  15   7   11.95    0.60
  -6  15   7   16.59    1.42
  15  -6  -7   15.73    1.81
  15   6  -7   10.95    2.75
  15   6   7    9.34    2.39
   6  15   7   14.73    2.01
  -6  15   7   10.49    2.45
  15  -6  -9    9.69    2.46
  15   6  -9   12.24    2.18
   6  15  -9    9.83    1.94
  -6  15   9   12.74    3.25
   6 -15  -9   16.59    3.33
  15  -6  -9    9.12    2.23
  15   6  -9    9.63    3.13
   6  15   9   10.73    2.26
  -6  15   9    7.47    2.48
   7  15   0   58.51    4.30
  -7  15   0   56.49    4.08
 -15   7   0   54.24    4.26
   7 -15   0   56.27    4.17
  15  -7   0   58.41    4.37
  15   7   0   55.53    4.07
   7  15   0   59.57    4.20
  -7  15   0   60.01    4.19
  15   7  -2    1.63    0.44
   7  15  -2    1.91    0.47
   7  15   2    1.51    0.39
  -7  15  -2    1.39    0.43
  -7  15   2    1.43    0.58
 -15   7   2    1.27    0.77
   7 -15  -2    1.58    0.58
  15  -7  -2    2.28    0.54
  15  -7   2    1.77    0.82
  15   7  -2    1.47    0.51
  15   7   2    1.54    0.65
   7  15  -2    2.40    0.58
  -7  15  -2    2.35    0.39
   7  15   2    2.18    0.48
  -7  15   2    2.05    0.43
  15   7  -4   84.33    1.98
  -7  15  -4   84.60    1.35
  -7  15   4   84.41    3.19
   7 -15  -4   87.90    5.37
  15  -7  -4   81.53    3.27
  15   7  -4   85.43    1.98
  15   7   4   81.82    2.02
   7  15  -4   86.29    1.36
   7  15   4   83.81    1.43
  -7  15   4   90.61    1.43
  15   7  -6    1.98    1.43
   7  15  -6    2.02    0.60
  -7  15  -6    2.40    0.74
   7  15   6    2.69    0.84
  -7  15   6    1.83    0.88
   7 -15  -6    0.99    1.10
  15  -7  -6    1.81    0.74
  15   7  -6    2.18    0.47
  15   7   6    2.40    0.55
   7  15  -6    2.44    0.65
   7  15   6    1.54    0.39
  -7  15   6    2.07    0.70
  15   7  -8   34.21    4.79
   7  15  -8   33.95    4.97
  -7  15   8   31.49    4.26
   7 -15  -8   25.03    5.84
  15  -7  -8   36.06    4.94
  15   7  -8   32.63    4.32
  15   7   8   30.95    4.15
   7  15   8   23.91    4.67
  -7  15   8   29.04    3.90
  15   8  -1    2.93    0.51
   8  15  -1    3.21    1.14
   8  15   1    4.45    0.68
  -8  15  -1    2.64    0.98
  -8  15   1    2.77    1.24
 -15   8   1    2.07    0.59
   8 -15  -1    4.48    1.01
  15  -8  -1    4.46    1.07
  15  -8   1    4.12    1.33
  15   8  -1    2.99    0.87
  15   8   1    3.29    1.10
   8  15  -1    3.72    0.67
  -8  15  -1    3.69    0.74
   8  15   1    3.73    0.97
  -8  15   1    3.74    0.72
  15   8  -3    2.52    1.43
   8  15  -3    3.75    1.82
   8  15   3    2.90    1.31
  -8  15  -3    1.66    0.88
  -8  15   3    2.55    1.63
 -15   8   3    2.05    1.09
   8 -15  -3    4.73    2.60
  15  -8  -3    2.87    1.70
  15   8  -3    2.84    1.54
  15   8   3    3.16    1.61
   8  15  -3    2.40    1.27
   8  15  -3    3.41    1.55
  -8  15  -3    2.24    1.12
   8  15   3    2.99    1.72
  -8  15   3    2.27    1.22
  15   8  -5    3.82    0.80
   8  15  -5    3.11    1.06
   8  15   5    3.15    0.90
  -8  15  -5    2.09    1.27
  -8  15   5    3.48    1.26
 -15   8   5    2.50    0.68
   8 -15  -5    3.43    0.76
  15  -8  -5    3.23    0.75
  15   8  -5    2.77    1.10
  15   8   5    3.77    1.16
   8  15  -5    3.26    0.79
   8  15   5    2.80    0.67
  -8  15   5    3.55    1.25
  15   8  -7    1.54    1.00
   8  15  -7    1.10    0.57
   8  15   7    0.52    0.37
  -8  15   7    2.10    1.04
  15  -8  -7    1.06    0.65
  15   8  -7    1.02    0.70
  15   8   7    1.29    0.68
   8  15   7    1.42    0.78
  -8  15   7    0.88    0.50
   9  15   0   33.78   14.33
  -9  15   0   39.70   16.85
   9 -15   0   36.20   15.48
  15  -9   0   35.07   14.96
  15   9   0   34.30   14.57
   9  15   0   38.22   16.20
  -9  15   0   36.80   15.60
  15   9  -2    0.82    0.62
   9  15  -2    2.20    1.18
   9  15   2    1.70    0.85
  -9  15  -2    1.36    0.86
  -9  15   2    1.69    1.03
 -15   9   2    1.20    0.61
   9 -15  -2    2.33    1.18
  15  -9  -2    1.74    0.91
  15   9  -2    1.78    1.04
  15   9   2    0.98    0.66
   9  15  -2    1.21    0.63
   9  15  -2    1.93    0.93
  -9  15  -2    1.16    0.63
   9  15   2    1.57    0.74
  -9  15   2    1.96    0.93
  15   9  -4   45.43    4.93
   9  15  -4   43.90    4.73
   9  15   4   43.72    4.70
  -9  15  -4   41.83    4.49
  -9  15   4   44.66    4.83
 -15   9   4   41.64    5.49
   9 -15  -4   46.03    5.09
  15  -9  -4   47.01    5.23
  15   9  -4   48.29    5.21
  15   9   4   45.27    4.93
   9  15  -4   47.83    5.14
  -9  15  -4   42.54    4.51
   9  15   4   43.13    4.61
  -9  15   4   46.51    4.97
  15   9  -6    1.91    1.03
   9  15  -6    1.98    1.04
   9  15   6    0.97    0.53
  -9  15   6    0.52    0.39
 -15   9   6    1.37    0.83
   9 -15  -6    2.09    1.09
  15  -9  -6    1.75    0.89
   9  15  -6    0.49    0.47
  15   9   6    1.06    0.71
   9  15   6    1.66    0.88
  -9  15   6    0.95    0.54
  15  10  -1    8.19    1.89
  10  15  -1    6.95    1.44
  10  15   1    7.42    1.69
 -10  15  -1    6.63    0.86
 -10  15   1    5.18    1.65
 -15  10   1    4.91    1.57
  10 -15  -1    6.43    1.73
  15 -10  -1    6.32    1.55
  15  10  -1    6.71    1.67
  15  10   1    8.57    1.63
  10  15  -1    7.18    2.19
  10  15  -1    7.89    1.27
  10  15   1    7.51    1.08
  15  10  -3   10.65    2.17
  10  15  -3   10.89    1.95
  10  15   3    9.44    2.14
 -10  15  -3    7.65    1.19
 -10  15   3    6.79    2.75
 -15  10   3    6.69    2.83
  10 -15  -3    9.96    3.00
  15 -10  -3   12.47    1.91
  15  10  -3   10.40    2.60
  15  10   3   12.62    2.22
  10  15  -3    9.22    2.50
  10  15  -3    9.86    1.77
  10  15   3   10.06    1.54
  15  10  -5    8.98    4.43
  10  15  -5    8.33    4.05
  10  15   5    8.22    3.99
 -10  15   5    9.15    4.64
 -15  10   5    6.48    4.00
  10 -15  -5    8.61    4.11
  15 -10  -5   11.52    5.33
  15  10  -5    8.86    4.25
  10  15  -5    6.62    3.42
  15  10   5    8.86    4.79
  10  15   5    9.90    4.42
  15  10  -7    7.22    4.24
  10  15  -7    9.16    5.27
 -10  15   7   10.06    5.74
 -15  10   7    6.45    4.04
  10 -15  -7    7.83    4.80
  15 -10  -7    7.41    4.53
  15  10  -7    5.78    3.76
  10  15  -7    5.33    3.35
  10  15   7    8.11    4.82
  11  15   0    5.34    1.46
 -11  15   0    5.15    1.56
  15 -11   0    4.97    1.21
  15  11   0    4.26    1.10
  11  15   0    5.00    1.30
  11  15   0    7.22    0.98
  15  11  -2    3.10    0.66
  11  15  -2    3.23    0.96
  11  15   2    2.45    0.55
 -11  15  -2    2.40    0.77
 -11  15   2    2.65    1.06
 -15  11   2    2.05    0.80
  11 -15  -2    4.22    1.12
  15 -11  -2    3.87    0.88
  15  11  -2    2.09    0.82
  15  11   2    3.02    0.76
  11  15  -2    3.39    1.15
  11  15  -2    3.31    0.57
  11  15   2    4.59    0.80
  15  11  -4    3.39    1.09
  11  15  -4    3.35    0.95
  11  15   4    2.81    1.23
 -11  15   4    3.59    1.13
 -15  11   4    3.55    1.24
  11 -15  -4    3.71    1.10
  15 -11  -4    4.94    1.16
  15  11  -4    2.45    0.70
  11  15  -4    2.87    0.86
  15  11   4    3.50    0.94
  11  15  -4    3.14    0.83
  11  15   4    2.59    1.02
  15  11  -6    1.58    1.36
  11  15  -6    3.16    2.14
 -11  15   6    2.59    1.70
 -15  11   6    2.16    1.63
  11 -15  -6    3.19    1.96
  15 -11  -6    3.76    2.37
  15  11  -6    1.92    1.36
  11  15  -6    2.93    1.89
  15  11   6    2.00    1.49
  11  15   6    3.03    1.99
  15  12  -1   18.70    2.65
  12  15  -1   20.49    2.91
  12  15   1   22.37    2.98
 -12  15  -1   23.23    3.16
 -12  15   1   18.44    2.74
 -15  12   1   19.70    2.86
  15 -12  -1   14.94    3.96
  15  12  -1   20.41    2.77
  15  12   1   15.91    3.84
  12  15  -1   18.25    2.50
  12  15   1   20.85    2.94
  12  15  -1   21.42    2.83
  12  15   1   20.27    3.36
  15  12  -3    9.94    2.07
  12  15  -3    8.36    2.17
  12  15   3    6.23    2.00
 -12  15   3    6.08    1.96
 -15  12   3    7.69    3.51
  12 -15  -3    7.21    2.59
  15 -12  -3    9.53    1.96
  15  12  -3    8.10    2.59
  12  15  -3   12.06    1.83
  15  12   3    9.07    2.11
  12  15  -3    8.02    1.46
  12  15   3   10.72    2.36
  13  15   0    5.10    3.13
 -13  15   0    3.17    2.73
  15  13   0    5.58    3.59
  13  15   0    5.20    3.37
  13  15   0    6.25    3.58
  15  13  -2    2.73    1.76
  13  15  -2    2.14    1.41
  13  15   2    1.68    1.26
 -13  15   2    2.25    1.56
 -15  13   2    1.83    1.45
  13 -15  -2    2.78    1.74
  15  13  -2    2.38    1.72
  13  15  -2    2.46    1.53
  15  13   2    2.35    1.49
  13  15   2    2.04    1.41
  13  15  -2    2.23    1.39
  13  15   2    1.90    1.24
   0  16   0  114.50    9.98
  16   0   0  135.17    9.55
   0  16   0  115.17    8.00
  16   0  -2    0.71    0.56
   0  16  -2    0.69    0.30
   0  16   2   -0.03    0.55
  16   0  -2    0.57    0.36
  16   0   2   -0.09    0.48
   0  16  -2    0.54    0.27
   0  16   2    0.11    0.21
  16   0  -4   51.97    3.95
   0  16  -4   54.19    3.87
   0  16   4   50.14    3.68
  16   0  -4   52.97    3.89
  16   0   4   48.73    3.55
   0  16   4   50.52    3.92
  16   0  -6    1.51    1.12
   0  16  -6    0.04    0.44
   0  16   6    0.31    0.34
  16   0  -6   -0.26    0.61
   0  16   6    0.86    0.70
  16   0  -8   59.60   25.84
   0  16  -8   55.81   24.17
   0  16   8   54.63   23.67
  16   0  -8   52.78   22.87
   0  16   8   57.32   24.83
   1  16  -1   11.34    1.17
  -1  16  -1   11.51    1.83
   1  16   1   12.67    1.28
  -1  16   1   12.10    2.46
  16  -1  -1   10.58    1.20
  16  -1   1   12.95    3.46
  16   1  -1   12.42    2.78
  16   1   1   11.21    1.19
   1  16  -1   13.08    1.22
  -1  16  -1   10.04    1.74
   1  16   1   12.87    2.30
  -1  16   1   11.93    1.11
  16  -1  -3    5.25    0.89
  16   1  -3    5.87    1.60
   1  16  -3    3.56    0.43
  -1  16  -3    4.70    1.32
   1  16   3    4.91    2.25
  -1  16   3    4.60    1.52
  16  -1  -3    4.15    1.46
  16   1  -3    6.27    1.62
  16  -1   3    3.98    1.12
  16   1   3    4.81    1.56
   1  16  -3   11.03    1.96
  -1  16  -3    4.82    0.97
   1  16   3    5.28    1.75
  -1  16   3    5.04    0.87
  16  -1  -5    5.33    1.38
  16   1  -5    4.76    1.16
   1  16  -5    6.39    1.72
  -1  16  -5    4.69    0.94
   1  16   5    4.36    1.45
  -1  16   5    5.92    1.98
  16  -1  -5    5.03    2.13
  16   1  -5    5.45    2.07
  16  -1   5    5.54    1.09
  16   1   5    4.59    1.18
   1  16   5    5.78    1.25
  -1  16   5    6.59    0.89
  16  -1  -7   11.24    1.63
  16   1  -7   10.00    1.92
   1  16  -7    7.65    1.84
  -1  16  -7    7.50    1.58
   1  16   7    7.12    1.67
  -1  16   7    6.88    1.35
  16  -1  -7    8.10    2.63
  16   1  -7    8.07    2.80
   1  16   7    9.81    1.49
  -1  16   7    7.97    1.77
  16  -1  -9    6.47    1.88
  16   1  -9    6.38    1.72
   1  16  -9    5.29    0.98
  -1  16  -9    4.79    1.20
   1  16   9    3.94    1.30
  -1  16   9    6.58    1.76
  16  -1  -9    5.38    2.21
  16   1  -9    6.03    2.36
   1  16   9    5.14    1.79
  -1  16   9    5.48    0.99
   2  16   0   30.92    2.87
  -2  16   0   30.64    2.79
  16  -2   0   32.98    3.05
  16   2   0   33.79    3.19
   2  16   0   33.17    3.01
  -2  16   0   33.11    2.93
  16  -2  -2    1.73    0.49
  16   2  -2    1.45    0.71
   2  16  -2    1.79    0.66
  -2  16  -2    2.03    0.55
   2  16   2    1.67    0.65
  -2  16   2    1.64    0.48
  16  -2  -2    2.14    0.68
  16   2  -2    2.52    0.68
  16  -2   2    1.93    0.50
  16   2   2    1.71    0.52
   2  16  -2    1.43    0.38
  -2  16  -2    1.57    0.31
   2  16   2    2.09    0.71
  -2  16   2    1.25    0.36
  16  -2  -4   25.69    3.64
  16   2  -4   26.34    1.64
   2  16  -4   26.01    0.90
  -2  16  -4   26.92    0.76
   2  16   4   25.91    1.02
  -2  16   4   31.67    1.10
  16  -2  -4   27.95    2.61
  16   2  -4   27.00    1.07
  16  -2   4   23.10    1.36
  16   2   4   26.76    1.69
   2  16   4   27.14    0.76
  -2  16   4   29.68    0.76
  16  -2  -6    1.08    0.93
  16   2  -6    1.12    0.69
   2  16  -6    0.39    0.36
  -2  16  -6    0.45    0.35
   2  16   6    0.39    0.44
  -2  16   6    0.35    0.43
  16  -2  -6    0.73    0.58
  16   2  -6    0.65    0.78
  16   2   6    0.33    0.35
   2  16   6    0.89    0.53
  -2  16   6   -0.72    0.54
  16  -2  -8   31.39   14.33
  16   2  -8   31.81   13.82
   2  16  -8   32.82   14.23
  -2  16  -8   32.76   14.19
   2  16   8   30.60   13.28
  -2  16   8   27.93   12.41
  16  -2  -8   33.61   14.60
  16   2  -8   32.86   14.26
   2  16   8   30.33   13.70
  -2  16   8   29.94   13.19
   3  16  -1   42.18    3.84
   3  16   1   42.96    3.85
  -3  16  -1   45.12    3.29
  -3  16   1   41.88    3.76
  16  -3  -1   43.27    3.98
  16  -3   1   40.61    4.56
  16   3  -1   41.66    3.84
  16   3   1   40.74    3.75
   3  16  -1   41.16    3.61
  -3  16  -1   42.85    3.76
   3  16   1   45.66    4.02
  -3  16   1   47.44    4.17
  16  -3  -3   34.61    2.80
  16   3  -3   31.73    2.85
   3  16  -3   39.33    2.85
  -3  16  -3   35.89    2.64
   3  16   3   32.14    2.40
  -3  16   3   34.49    2.56
  16  -3  -3   34.95    2.78
  16   3  -3   33.83    2.69
  16  -3   3   35.32    2.64
  16   3   3   35.72    2.68
  -3  16  -3   39.15    2.80
   3  16   3   37.00    2.67
  -3  16   3   42.11    3.01
  16  -3  -5   31.28   13.34
  16   3  -5   30.18   12.84
   3  16  -5   26.61   11.30
  -3  16  -5   26.31   11.18
   3  16   5   27.79   11.80
  -3  16   5   25.05   10.85
  16  -3  -5   25.55   11.10
  16   3  -5   25.52   10.88
  16   3   5   25.78   10.95
   3  16   5   27.46   11.67
  -3  16   5   27.44   11.65
  16  -3  -7   28.54    1.89
  16   3  -7   24.98    4.25
   3  16  -7   27.31    0.89
  -3  16  -7   27.73    0.87
   3  16   7   28.83    0.95
  -3  16   7   27.67    1.00
  16  -3  -7   26.75    2.63
  16   3  -7   28.69    0.96
  16   3   7   25.92    1.19
   3  16   7   28.40    1.04
  -3  16   7   25.55    0.92
  16  -3  -9   19.04   11.47
  16   3  -9   20.23   12.05
   3  16  -9   19.85   11.20
  -3  16  -9   15.18    8.87
   3  16   9   16.77    9.67
  -3  16   9   18.14   10.61
  16  -3  -9   17.63   10.25
  16   3  -9   17.03    9.72
   3  16   9   18.09   10.39
  -3  16   9   12.37    7.36
   4  16   0    1.52    0.42
  -4  16   0    1.65    0.34
  16  -4   0    1.04    0.60
  16   4   0    1.29    0.74
   4  16   0    1.69    0.35
  -4  16   0    1.64    0.35
  16  -4  -2    0.94    0.42
  16   4  -2    0.29    0.53
   4  16   2    1.38    0.57
  -4  16  -2   -0.07    0.43
  -4  16   2    0.59    0.50
  16  -4  -2    0.60    0.60
  16  -4   2    1.20    0.38
  16   4  -2   -0.37    0.77
  16   4   2    1.61    0.50
   4  16  -2    0.40    0.31
  -4  16  -2    0.84    0.31
   4  16   2    0.43    0.28
  -4  16   2    0.89    0.40
  16  -4  -4    0.44    0.49
  16   4  -4   -0.13    0.55
   4  16  -4    0.34    0.25
  -4  16  -4   -0.04    0.36
   4  16   4    0.29    0.44
  -4  16   4    0.95    0.30
  16  -4  -4   -0.35    0.64
  16   4  -4   -0.21    0.67
  16   4   4    0.28    0.28
   4  16   4    0.12    0.32
  -4  16   4    0.96    0.33
  16  -4  -6    0.90    0.44
  16   4  -6    0.37    0.28
   4  16  -6   -0.10    0.38
  -4  16  -6    0.36    0.36
   4  16   6    0.25    0.15
  -4  16   6    0.55    0.37
  16  -4  -6    0.38    0.37
  16   4  -6  -22.06   40.67
  16   4   6   -0.46    0.43
   4  16   6    0.58    0.51
  -4  16   6   -0.08    0.32
  16  -4  -8    0.64    0.72
  16   4  -8    0.72    0.54
   4  16  -8    0.36    0.33
  -4  16  -8    0.36    0.22
   4  16   8    0.76    0.40
  -4  16   8   -0.69    0.52
  16  -4  -8    0.07    0.67
   4  16   8    0.16    0.55
   5  16  -1   24.11    1.86
   5  16   1   25.42    1.93
  -5  16  -1   24.38    1.87
  -5  16   1   23.63    1.83
  16  -5  -1   24.31    2.01
  16  -5   1   23.46    2.68
  16   5  -1   28.80    2.37
  16   5   1   24.99    2.03
   5  16  -1   24.02    1.76
  -5  16  -1   25.67    1.87
   5  16   1   26.73    1.96
  -5  16   1   25.84    1.88
  16  -5  -3   34.88    1.28
  16   5  -3   35.66    1.68
   5  16  -3   39.75    1.69
  -5  16  -3   38.97    1.06
  -5  16   3   35.18    2.08
  16  -5  -3   32.24    2.08
  16   5  -3   38.78    1.24
  16   5   3   37.68    1.08
  -5  16  -3   34.36    0.72
   5  16   3   33.85    1.25
  -5  16   3   35.95    0.98
  16  -5  -5   39.12    5.11
  16   5  -5   40.12    5.43
   5  16  -5   37.93    4.10
  -5  16  -5   40.54    4.34
   5  16   5   42.84    4.59
  -5  16   5   32.41    3.53
  16  -5  -5   37.09    4.39
  16   5  -5   42.93    4.66
  16   5   5   39.63    4.35
   5  16   5   34.25    3.69
  -5  16   5   36.32    3.91
  16  -5  -7   21.82   10.73
  16   5  -7   21.96    9.56
   5  16  -7   23.13   10.04
  -5  16  -7   21.54    9.34
   5  16   7   21.42    9.31
  -5  16   7   23.53   10.26
  16  -5  -7   20.25    9.27
  16   5  -7   19.92    8.67
  16   5   7   18.66    8.13
   5  16   7   19.22    8.58
  -5  16   7   22.79    9.90
   6  16   0   38.59    1.46
  -6  16   0   37.32    1.05
  16  -6   0   39.96    3.35
  16   6   0   38.42    1.16
   6  16   0   41.78    0.88
  -6  16   0   41.44    0.74
  16   6  -2   -0.29    0.44
   6  16  -2   -0.33    0.52
   6  16   2   -0.39    0.46
  -6  16  -2    0.10    0.33
  -6  16   2    0.19    0.34
  16  -6   2    0.17    0.30
  16   6  -2    0.59    0.33
  16   6   2    0.74    0.50
   6  16  -2    0.56    0.31
  -6  16  -2    0.20    0.15
   6  16   2    0.27    0.25
  -6  16   2    0.47    0.34
  16  -6  -4   44.44   18.89
  16   6  -4   46.01   19.53
   6  16  -4   48.57   20.64
   6  16   4   47.38   20.10
  -6  16  -4   46.63   19.78
  -6  16   4   50.84   21.57
  16  -6  -4   42.60   18.20
  16   6  -4   48.57   20.60
  16   6   4   47.98   20.36
  -6  16  -4   52.15   22.10
   6  16   4   41.03   17.41
  -6  16   4   54.08   22.93
  16  -6  -6   -0.30    0.73
  16   6  -6    0.87    0.61
   6  16  -6    0.44    0.26
  -6  16  -6    0.26    0.25
   6  16   6    0.40    0.29
  -6  16   6    0.91    0.56
  16  -6  -6    0.89    0.46
  16   6  -6    0.59    0.77
  16   6   6   -0.56    0.47
   6  16   6    0.50    0.32
  -6  16   6    0.05    0.49
  16  -6  -8   17.09   10.09
  16   6  -8   15.84    9.56
   6  16  -8   17.75   10.30
   6  16   8   17.54    9.82
  -6  16   8   20.25   11.35
   6 -16  -8   23.11   12.97
  16  -6  -8   21.70   12.36
  16   6  -8   19.31   10.90
  16   6   8   19.23   10.94
   6  16   8   17.55   10.28
  -6  16   8   15.79    8.85
   7  16  -1    6.71    3.13
  -7  16  -1    5.40    2.95
  -7  16   1    5.89    2.75
   7 -16  -1    7.27    3.43
  16  -7  -1    6.72    3.59
  16  -7   1    7.03    3.09
  16   7  -1    7.51    3.74
  16   7   1    6.09    3.30
   7  16  -1    6.89    3.15
  -7  16  -1    6.88    3.05
   7  16   1    7.18    3.25
  -7  16   1    6.70    3.00
  16   7  -3    3.71    1.41
   7  16  -3    3.71    1.22
   7  16   3    2.87    0.75
  -7  16  -3    3.54    0.98
  -7  16   3    3.77    1.36
   7 -16  -3    2.66    0.64
  16  -7  -3    4.90    1.29
  16   7  -3    3.36    1.01
  16   7   3    3.80    2.19
   7  16  -3    3.58    0.71
  -7  16  -3    4.04    1.03
   7  16   3    3.49    0.98
  -7  16   3    3.06    0.97
  16   7  -5    3.55    0.94
   7  16  -5    3.99    0.75
   7  16   5    3.37    0.81
  -7  16  -5    2.47    0.87
  -7  16   5    4.14    1.01
   7 -16  -5    3.59    1.09
  16  -7  -5    2.27    1.04
  16   7  -5    3.21    1.16
  16   7   5    4.31    0.84
   7  16   5    3.82    0.57
  -7  16   5    3.16    0.95
  16  -7  -7    4.79    1.15
  16   7  -7    3.22    0.94
   7  16  -7    3.14    1.17
   7  16   7    2.91    0.90
  -7  16   7    3.11    1.15
   7 -16  -7    5.97    1.28
  16  -7  -7    3.69    0.71
  16   7  -7    2.99    0.84
  16   7   7    2.26    0.85
   7  16   7    3.02    0.80
  -7  16   7    2.75    0.96
   8  16   0   42.32    4.61
  -8  16   0   39.91    4.32
  16  -8   0   35.65    4.24
  16   8   0   40.45    4.41
   8  16   0   39.97    4.25
  -8  16   0   41.52    4.41
  16   8  -2    1.12    0.45
   8  16  -2    0.81    0.39
   8  16   2    1.09    0.40
  -8  16  -2   -0.28    0.43
  -8  16   2    0.20    0.44
 -16   8   2    1.05    0.67
   8 -16  -2    1.72    0.61
  16  -8  -2    0.72    0.38
  16   8  -2    0.55    0.34
  16   8   2    1.63    0.79
   8  16  -2    0.77    0.28
  -8  16  -2    0.48    0.17
   8  16   2    0.50    0.23
  -8  16   2    0.28    0.30
  16   8  -4   54.83    1.31
   8  16  -4   60.82    1.51
   8  16   4   52.08    1.06
  -8  16  -4   58.36    1.34
  -8  16   4   56.36    1.24
   8 -16  -4   57.36    3.95
  16  -8  -4   56.19    1.99
  16   8  -4   60.15    1.50
  16   8   4   54.00    1.67
   8  16  -4   57.61    1.32
   8  16  -4  145.33   62.90
  -8  16  -4   52.69    0.89
   8  16   4   56.13    1.41
  -8  16   4   60.86    1.23
  16   8  -6    0.96    0.53
   8  16  -6    0.95    0.50
   8  16   6   -0.09    0.43
  -8  16   6    0.24    0.38
   8 -16  -6    1.16    0.68
  16  -8  -6    0.35    0.28
  16   8  -6    0.83    0.33
  16   8   6    0.30    0.33
   8  16  -6    0.06    0.15
   8  16   6    0.78    0.51
  -8  16   6    0.04    0.41
   9  16  -1    2.99    0.63
   9  16   1    2.57    1.03
  -9  16  -1    1.88    0.76
  -9  16   1    2.27    0.82
   9 -16  -1    3.64    0.76
  16  -9  -1    3.03    0.96
  16   9  -1    4.23    1.24
  16   9   1    3.21    0.85
   9  16  -1    3.36    0.52
   9  16   1    3.15    0.56
  -9  16  -1    2.94    0.62
  -9  16   1    3.21    0.64
  16   9  -3    3.98    0.91
   9  16  -3    7.09    1.44
   9  16   3    6.74    1.71
  -9  16  -3    3.47    1.68
  -9  16   3    4.10    2.66
 -16   9   3    3.82    1.36
   9 -16  -3    7.74    1.64
  16  -9  -3    5.06    0.98
  16   9  -3    5.02    1.53
  16   9   3    6.30    1.19
   9  16  -3    6.12    1.86
   9  16  -3    5.76    0.76
  -9  16  -3    6.15    1.02
   9  16   3    5.93    0.84
  -9  16   3    6.23    1.29
  16   9  -5    2.89    0.97
   9  16  -5    2.48    0.90
   9  16   5    1.59    0.52
  -9  16  -5    1.22    0.57
  -9  16   5    1.75    0.51
   9 -16  -5    1.62    0.50
  16  -9  -5    2.38    0.87
  16   9  -5    2.28    0.63
  16   9   5    1.64    0.97
   9  16  -5    1.88    0.87
  -9  16  -5    0.84    0.44
   9  16   5    2.12    0.71
  10  16   0   22.75    9.88
 -10  16   0   18.22    7.93
  16 -10   0   20.84    9.33
  16  10   0   20.15    9.07
  10  16   0   20.54    9.09
  16  10  -2    0.62    0.40
  10  16  -2    0.29    0.39
  10  16   2    0.32    0.34
 -10  16  -2    0.61    0.32
 -10  16   2    0.90    0.44
 -16  10   2    0.43    0.55
  10 -16  -2    0.52    0.33
  16 -10  -2    0.65    0.59
  16  10  -2    0.46    0.47
  16  10   2    0.83    0.50
  10  16  -2    0.27    0.38
  10  16  -2    0.69    0.33
  10  16   2    0.64    0.37
  16  10  -4   15.44    3.53
  10  16  -4   18.05    2.42
  10  16   4   17.51    2.37
 -10  16   4   21.74    3.02
 -16  10   4   19.09    2.94
  10 -16  -4   18.54    4.62
  16 -10  -4   16.03    4.04
  16  10  -4   17.43    2.40
  16  10   4   20.15    2.78
  10  16  -4   21.57    2.92
  10  16  -4   19.32    2.56
  10  16   4   18.26    3.42
  11  16  -1   17.17    3.05
  11  16   1   18.61    3.40
 -11  16  -1   17.78    2.51
 -11  16   1   17.26    2.49
  16 -11  -1   11.39    2.86
  16  11  -1   12.92    3.90
  16  11   1   12.70    2.96
  11  16  -1   17.67    2.49
  11  16  -1   16.81    2.25
  11  16   1   16.30    2.84
  16  11  -3    7.60    4.46
  11  16  -3    7.06    4.34
  11  16   3    5.97    3.66
 -11  16   3    5.40    4.16
 -16  11   3    6.62    4.17
  11 -16  -3    8.65    5.53
  16 -11  -3    8.01    4.93
  16  11  -3    7.33    4.73
  16  11   3    5.48    4.09
  11  16  -3    6.07    4.04
  11  16  -3    7.66    4.40
  11  16   3    8.80    5.19
  12  16   0    0.48    0.36
 -12  16   0   -0.23    0.47
  16  12   0    1.16    0.87
  12  16   0    0.41    0.28
  12  16   0    0.18    0.31
   0  17  -1    2.91    0.66
   0  17   1    3.49    1.42
  17   0  -1    2.81    0.74
  17   0   1    3.82    0.91
   0  17  -1    3.65    0.70
   0  17   1    3.65    0.49
  17   0  -3    5.26    2.57
   0  17  -3    5.61    2.59
   0  17   3    5.52    2.55
  17   0  -3    5.78    2.94
  17   0   3    3.55    1.93
   0  17  -3    5.04    2.19
   0  17   3    5.41    2.47
  17   0  -5    3.38    0.90
   0  17  -5    3.67    0.99
   0  17   5    3.34    1.12
  17   0  -5    2.91    0.63
  17   0   5    1.90    1.02
   0  17   5    2.18    1.04
  17   0  -7    4.55    2.15
   0  17  -7    4.40    2.39
   0  17   7    4.99    2.39
  17   0  -7    4.71    2.52
   0  17   7    5.08    2.43
   1  17   0   55.22    1.15
  -1  17   0   56.06    1.40
  17  -1   0   58.64    1.59
  17   1   0   53.55    1.65
   1  17   0   57.17    0.91
  -1  17   0   55.96    0.86
   1  17  -2    4.35    0.99
  -1  17  -2    3.32    1.07
   1  17   2    3.84    1.11
  -1  17   2    4.75    0.54
  17  -1  -2    3.26    0.77
  17   1  -2  299.68  198.14
  17  -1   2    4.41    1.13
  17   1   2    4.60    0.94
   1  17  -2    4.11    0.78
  -1  17  -2    3.99    0.71
   1  17   2    4.16    0.73
  -1  17   2    4.02    0.98
  17  -1  -4   35.95   15.29
  17   1  -4   37.25   15.87
   1  17  -4   39.26   16.65
  -1  17  -4   38.70   16.42
   1  17   4   38.41   16.30
  -1  17   4   37.95   16.10
  17  -1  -4   37.82   16.07
  17   1  -4   35.84   15.24
  17  -1   4   34.29   14.58
  17   1   4   35.42   15.12
   1  17   4   36.74   15.59
  -1  17   4   35.69   15.14
  17   1  -6    2.32    0.41
   1  17  -6    1.80    0.68
  -1  17  -6    0.97    0.60
   1  17   6    1.55    0.38
  -1  17   6    1.05    0.33
  17  -1  -6    2.87    0.93
  17   1  -6    0.73    0.52
   1  17   6    2.10    0.60
  -1  17   6    1.39    0.31
  17  -1  -8   33.18   18.57
  17   1  -8   30.30   16.95
   1  17  -8   29.27   16.35
  -1  17  -8   33.03   18.46
   1  17   8   27.59   15.42
  -1  17   8   26.29   15.25
  17  -1  -8   23.82   13.33
  17   1  -8   34.38   19.21
   1  17   8   27.46   15.73
  -1  17   8   30.30   16.95
   2  17  -1   22.37    0.77
   2  17   1   17.83    0.79
  -2  17  -1   19.72    0.74
  -2  17   1   22.07    0.93
  17  -2  -1   18.74    0.99
  17  -2   1 1111.58  474.68
  17   2  -1   20.62    1.10
  17   2   1   20.90    1.84
   2  17  -1   19.90    0.60
  -2  17  -1   22.61    0.54
   2  17   1   18.45    0.52
  -2  17   1   22.12    0.58
  17  -2  -3   15.03    6.85
  17   2  -3   15.68    7.39
   2  17  -3   16.36    6.96
  -2  17  -3   13.60    6.09
   2  17   3   14.21    6.06
  -2  17   3   13.38    5.71
  17  -2  -3   12.44    5.42
  17   2  -3 1071.55  250.31
  17  -2   3   13.99    5.99
  17   2   3   16.15    6.93
   2  17  -3   17.29    7.35
  -2  17  -3   16.04    6.81
   2  17   3   15.30    6.51
  -2  17   3   16.18    6.89
  17  -2  -5   12.90    2.93
  17   2  -5   13.56    3.10
   2  17  -5   14.42    1.65
  -2  17  -5   15.86    1.79
   2  17   5   15.31    2.79
  -2  17   5   16.38    3.25
  17  -2  -5   14.96    1.83
  17   2  -5   14.52    2.77
  17   2   5   13.31    1.59
   2  17   5   15.49    2.03
  -2  17   5   14.20    1.99
  17  -2  -7   11.85    5.32
  17   2  -7   13.26    6.28
   2  17  -7   11.32    5.03
  -2  17  -7   13.10    5.70
   2  17   7   12.64    5.65
  -2  17   7   10.70    4.95
  17  -2  -7   12.09    3.38
  17   2  -7   12.24    6.42
   2  17   7   11.94    2.95
  -2  17   7   12.96    5.83
   3  17   0    9.75    1.88
  -3  17   0    9.39    1.40
  17  -3   0    9.42    1.80
  17   3   0    7.10    2.49
   3  17   0   10.58    1.61
  -3  17   0   10.80    0.41
   3  17  -2   14.07    5.99
   3  17   2   12.92    5.83
  -3  17  -2   13.12    5.95
  -3  17   2   11.95    5.10
  17  -3  -2   13.63    5.83
  17  -3   2   13.62    6.73
  17   3  -2   13.63    6.66
  17   3   2   14.04    6.76
   3  17  -2   13.51    5.87
  -3  17  -2   12.54    5.33
   3  17   2   13.65    5.82
  -3  17   2   12.83    5.46
  17  -3  -4    4.21    1.21
  17   3  -4    3.30    0.67
   3  17  -4    4.01    1.20
  -3  17  -4    3.91    1.09
   3  17   4    4.27    0.88
  -3  17   4    4.25    0.86
  17  -3  -4    5.42    2.08
  17   3  -4    3.91    1.76
  17   3   4    2.87    1.04
  -3  17  -4    5.82    3.85
   3  17   4    5.36    1.54
  -3  17   4    3.44    0.88
  17  -3  -6    9.41    4.39
  17   3  -6    9.55    4.64
   3  17  -6    8.96    4.08
  -3  17  -6    8.29    3.90
   3  17   6    8.37    3.81
  -3  17   6    8.85    4.34
  17  -3  -6   10.08    5.28
  17   3  -6    8.81    4.50
  17   3   6    9.60    4.22
   3  17   6   10.62    5.03
  -3  17   6    9.24    4.49
  17  -3  -8    8.66    5.02
  17   3  -8    5.06    3.03
   3  17  -8    7.79    4.71
  -3  17  -8    6.39    3.73
   3  17   8    5.68    3.27
  -3  17   8    6.95    4.72
  17  -3  -8    7.32    4.53
  17   3  -8    4.58    2.92
   3  17   8    8.37    4.74
  -3  17   8    8.03    5.00
   4  17  -1   21.37    9.49
   4  17   1   17.55    7.85
  -4  17  -1   20.26    8.77
  -4  17   1   21.06    8.95
  17  -4  -1   17.88    7.64
  17  -4   1   18.88    8.05
  17   4  -1   18.20    7.84
  17   4   1   18.03    7.70
   4  17  -1   19.85    8.43
  -4  17  -1   22.43    9.52
   4  17   1   20.33    8.63
  -4  17   1   21.76    9.23
  17   4  -3   25.77    2.89
   4  17  -3   29.11    3.30
  -4  17  -3   25.07    2.76
   4  17   3   27.66    3.03
  -4  17   3   27.27    3.02
  17  -4  -3   24.31    2.85
  17  -4   3   24.32    2.74
  17   4  -3   23.25    2.64
  17   4   3   23.82    2.69
   4  17  -3   25.29    2.77
  -4  17  -3   25.87    2.78
   4  17   3   27.53    3.00
  -4  17   3   27.95    3.05
  17  -4  -5   21.00    2.81
  17   4  -5   25.22    1.27
   4  17  -5   21.43    0.77
  -4  17  -5   19.95    1.64
   4  17   5   20.98    0.71
  -4  17   5   23.31    0.99
  17  -4  -5   23.83    2.56
  17   4  -5   23.51    1.08
  17   4   5   19.41    1.69
   4  17   5   27.32    0.99
  -4  17   5   22.71    0.88
  17  -4  -7   18.97    2.75
  17   4  -7   15.78    4.09
   4  17  -7   20.99    2.82
  -4  17  -7   19.47    2.62
   4  17   7   21.82    3.14
  -4  17   7   15.91    3.36
  17  -4  -7   15.40    4.75
  17   4  -7 1395.13  781.15
  17   4   7   18.23    2.54
   4  17   7   16.49    3.09
  -4  17   7   18.43    2.53
   5  17   0    6.10    2.82
  -5  17   0    4.71    2.22
  17  -5   0    4.92    2.75
  17   5   0    5.36    2.91
   5  17   0    6.85    3.09
  -5  17   0    5.35    2.44
   5  17  -2    5.76    1.31
   5  17   2    3.94    1.57
  -5  17  -2    4.91    1.01
  -5  17   2    4.32    1.28
  17  -5  -2    3.83    2.01
  17  -5   2    3.34    1.31
  17   5  -2    4.71    1.91
  17   5   2    2.98    1.07
   5  17  -2    4.47    1.00
  -5  17  -2    4.01    0.63
   5  17   2    4.76    1.03
  -5  17   2    6.00    1.24
  17  -5  -4    7.41    3.06
  17   5  -4   12.19    2.19
   5  17  -4   11.08    2.19
  -5  17  -4    9.21    2.62
   5  17   4   10.17    0.58
  -5  17   4    9.25    2.05
  17  -5  -4    8.17    2.15
  17   5  -4    7.95    2.49
  17   5   4    9.42    2.26
  -5  17  -4   13.19    0.49
   5  17   4   13.16    2.11
  -5  17   4    9.95    1.21
  17  -5  -6    5.45    1.73
  17   5  -6    6.51    1.83
   5  17  -6    4.82    1.20
  -5  17  -6    4.03    1.26
   5  17   6    6.02    1.43
  -5  17   6    4.16    1.21
  17  -5  -6    4.69    1.07
  17   5  -6    5.87    1.66
  17   5   6    4.64    1.53
   5  17   6    6.74    2.10
  -5  17   6    5.05    1.37
   6  17  -1   17.02    2.53
   6  17   1   17.16    3.15
  -6  17  -1   11.11    2.72
  -6  17   1   14.59    1.70
  17  -6  -1   11.47    4.20
  17  -6   1   17.63    2.26
  17   6  -1   16.05    1.92
  17   6   1   13.36    3.34
   6  17  -1   16.92    1.86
  -6  17  -1   17.04    1.85
   6  17   1   18.33    2.02
  -6  17   1   17.13    1.88
  17   6  -3   10.00    2.36
   6  17  -3   15.45    1.84
   6  17   3   12.94    2.54
  -6  17  -3   11.57    2.01
  -6  17   3    9.46    2.15
  17  -6  -3   10.60    2.58
  17   6  -3    9.54    2.93
  17   6   3   10.57    2.58
   6  17  -3   11.86    1.33
  -6  17  -3   12.27    0.44
   6  17   3   12.87    1.96
  -6  17   3   12.19    0.57
  17  -6  -5    7.76    4.10
  17   6  -5    9.86    4.78
   6  17  -5    9.66    4.67
  -6  17  -5    7.78    4.00
   6  17   5    8.43    4.14
  -6  17   5    9.33    4.85
  17  -6  -5   12.46    5.46
  17   6  -5    8.58    4.27
  17   6   5    9.23    4.32
   6  17   5   10.83    4.84
  -6  17   5    6.93    3.81
  17  -6  -7   11.95    6.92
  17   6  -7   11.29    6.67
   6  17  -7   11.18    6.67
  -6  17  -7   11.77    6.68
   6  17   7    8.81    5.19
  -6  17   7    8.83    5.43
  17  -6  -7    9.58    6.05
  17   6  -7   14.83    8.32
  17   6   7   10.20    5.74
   6  17   7   10.86    6.91
  -6  17   7    9.50    5.87
   7  17   0   27.97    2.08
  -7  17   0   33.93    0.98
  17  -7   0   30.78    1.62
  17   7   0   30.08    2.29
   7  17   0   31.96    0.77
  -7  17   0   31.32    0.76
   7  17  -2    2.70    0.42
   7  17   2    2.89    0.72
  -7  17  -2    1.52    0.56
  -7  17   2    2.46    0.93
   7 -17  -2    2.95    0.75
  17  -7  -2    1.92    0.73
  17   7  -2    2.99    0.60
  17   7   2    1.69    0.49
   7  17  -2    2.33    0.34
  -7  17  -2    3.44    0.39
   7  17   2    2.71    0.69
  -7  17   2    2.98    0.50
  17  -7  -4   30.76   13.42
  17   7  -4   34.57   15.00
   7  17  -4   33.81   14.65
   7  17   4   31.37   13.98
  -7  17  -4   33.08   14.34
  -7  17   4   32.64   14.17
   7 -17  -4   32.65   14.23
  17  -7  -4   31.93   14.14
  17   7  -4   36.30   15.74
  17   7   4   32.66   14.18
   7  17  -4   42.88   18.57
  -7  17  -4   34.48   14.93
   7  17   4   29.76   12.90
  -7  17   4   36.82   15.96
  17  -7  -6    1.48    0.99
  17   7  -6    1.34    0.84
   7  17  -6    1.65    1.01
  -7  17  -6    1.73    1.14
   7  17   6    1.74    1.09
  -7  17   6    1.89    1.32
   7 -17  -6    2.76    1.80
  17  -7  -6    1.18    0.84
  17   7  -6    2.30    1.53
  17   7   6    2.06    1.25
   7  17   6    2.97    1.85
  -7  17   6    0.64    0.56
   8  17  -1    2.60    1.27
   8  17   1    2.38    1.72
  -8  17  -1    2.08    1.52
  -8  17   1    2.90    1.52
   8 -17  -1    2.81    1.48
  17  -8  -1    3.48    1.74
  17   8  -1    3.47    1.88
  17   8   1    3.51    1.80
   8  17  -1    4.25    1.93
  -8  17  -1    2.70    1.28
   8  17   1    3.59    1.61
  -8  17   1    1.94    1.21
  17   8  -3    5.39    2.64
   8  17  -3    5.31    2.66
   8  17   3    5.00    2.45
  -8  17  -3    2.98    1.99
  -8  17   3    4.09    2.28
   8 -17  -3    4.38    1.99
  17  -8  -3    4.38    2.23
  17   8  -3    5.18    2.61
  17   8   3    4.81    2.47
   8  17  -3    5.27    2.37
  -8  17  -3    4.34    2.07
   8  17   3    5.03    2.24
  -8  17   3    4.65    2.15
  17   8  -5    2.22    1.52
   8  17  -5    2.13    1.35
   8  17   5    2.17    1.44
  -8  17  -5    1.78    1.13
  -8  17   5    2.31    1.51
   8 -17  -5    2.70    1.62
  17  -8  -5    2.55    1.54
  17   8  -5    2.30    1.54
  17   8   5    2.07    1.31
  -8  17  -5    1.89    1.19
   8  17   5    2.92    1.74
  -8  17   5    1.86    1.26
   9  17   0   24.88   10.92
  -9  17   0   25.42   11.04
  17  -9   0   24.24   10.57
  17   9   0   26.18   11.38
   9  17   0   22.33    9.67
  -9  17   0   23.51   10.19
   9  17  -2   -0.12    0.39
   9  17   2    0.37    0.25
  -9  17  -2    0.93    0.34
  -9  17   2    0.14    0.42
   9 -17  -2    1.38    0.58
  17  -9  -2   -0.18    0.56
  17   9  -2    0.50    0.25
  17   9   2   -0.83    0.46
   9  17  -2    0.33    0.18
  -9  17  -2    0.40    0.18
   9  17   2    0.12    0.37
  -9  17   2    0.63    0.32
  17   9  -4   22.70   12.70
   9  17  -4   19.07   11.08
   9  17   4   17.82   10.54
  -9  17  -4   22.54   12.60
  -9  17   4   27.67   15.47
   9 -17  -4   26.61   14.91
  17  -9  -4   19.74   11.83
  17   9  -4   23.65   13.23
  17   9   4   27.14   15.17
   9  17  -4   22.63   12.64
   9  17   4   22.03   12.63
  -9  17   4   25.33   14.16
  10  17  -1   12.86    7.44
  10  17   1    9.93    5.85
 -10  17  -1    7.90    5.37
 -10  17   1    8.23    5.13
  17 -10  -1    6.98    5.14
  17  10  -1    9.87    6.26
  17  10   1   10.09    5.92
  10  17  -1   14.27    8.10
  10  17   1   11.15    6.39
  17  10  -3    4.36    2.63
  10  17  -3    4.08    2.83
  10  17   3    4.45    2.95
 -10  17  -3    3.02    2.22
 -10  17   3    3.56    2.44
 -17  10   3    3.66    2.40
  10 -17  -3    4.60    3.05
  17 -10  -3    3.39    2.22
  17  10  -3    3.80    2.56
  17  10   3    4.43    2.69
  10  17  -3    3.19    2.00
  10  17  -3    4.30    2.48
  10  17   3    6.03    3.58
   0  18   0   27.86    3.04
  18   0   0   22.76    3.48
   0  18   0   27.68    2.95
   0  18  -2    0.27    0.27
   0  18   2    0.09    0.35
  18   0  -2    0.24    0.50
  18   0   2    0.51    0.45
   0  18  -2    0.10    0.16
   0  18   2    0.42    0.33
  18   0  -4   23.89    4.42
   0  18  -4   27.08    0.95
   0  18   4   26.64    0.86
  18   0  -4   25.44    1.66
   0  18   4   27.21    0.79
  18   0  -6    0.80    0.32
   0  18  -6   -0.38    0.39
   0  18   6    0.10    0.35
  18   0  -6    0.31    0.32
   0  18   6   -0.45    0.55
   1  18  -1   10.07    1.18
  -1  18  -1    9.69    1.16
   1  18   1   11.02    1.35
  -1  18   1   12.25    1.69
  18  -1  -1    8.90    2.92
  18   1  -1   10.42    3.01
  18  -1   1    8.01    1.97
  18   1   1    9.65    2.81
   1  18  -1   10.97    1.22
  -1  18  -1   12.40    1.69
   1  18   1   11.45    1.32
  -1  18   1   11.05    1.71
   1  18  -3   12.47    1.69
  -1  18  -3   12.79    2.10
   1  18   3   12.22    2.92
  -1  18   3   14.54    2.53
  18  -1  -3   14.99    0.93
  18   1  -3   12.39    3.33
  18  -1   3   12.38    1.37
  18   1   3   14.24    0.84
   1  18  -3   14.42    1.51
  -1  18  -3   12.85    0.72
   1  18   3   13.08    0.54
  -1  18   3   14.94    0.67
  18  -1  -5   12.81    5.79
  18   1  -5    9.69    5.27
   1  18  -5   14.31    6.23
  -1  18  -5   11.96    5.81
   1  18   5   10.55    4.90
  -1  18   5   13.21    5.88
  18  -1  -5   13.94    6.19
  18   1  -5   10.94    5.59
  18   1   5   10.85    4.78
   1  18   5   12.67    5.76
  -1  18   5   11.88    5.74
  18  -1  -7    8.33    4.87
  18   1  -7    7.49    4.37
   1  18  -7    6.74    3.92
  -1  18  -7    7.33    4.37
   1  18   7    6.80    4.05
  -1  18   7    7.58    4.81
  18  -1  -7    6.46    4.14
  18   1  -7    6.87    4.51
   1  18   7    7.19    4.12
  -1  18   7    4.82    2.84
   2  18   0   18.92    3.71
  -2  18   0   19.58    2.19
  18  -2   0   18.18    3.94
  18   2   0   18.14    2.19
   2  18   0   20.38    2.19
  -2  18   0   20.57    2.23
   2  18  -2   18.44    2.04
  -2  18  -2   16.70    3.35
   2  18   2   19.32    3.75
  -2  18   2   18.59    2.09
  18  -2  -2   18.93    2.79
  18   2  -2   16.76    3.91
  18  -2   2   20.88    2.43
  18   2   2   21.87    2.50
   2  18  -2   16.77    2.71
  -2  18  -2   17.41    1.87
   2  18   2   19.73    2.16
  -2  18   2   20.73    2.26
  18  -2  -4    9.28    4.48
  18   2  -4    9.48    4.60
   2  18  -4   10.56    4.93
  -2  18  -4    9.15    4.47
   2  18   4    8.27    3.62
  -2  18   4    9.39    4.36
  18  -2  -4    9.16    4.84
  18   2  -4  625.11  163.98
  18   2   4    9.01    3.97
   2  18  -4   11.02    4.79
  -2  18  -4   11.96    5.39
   2  18   4   11.56    5.32
  -2  18   4   11.63    5.47
  18  -2  -6   11.17    3.88
  18   2  -6   16.61    2.37
   2  18  -6   14.02    2.71
  -2  18  -6   16.51    2.25
   2  18   6   13.21    2.81
  -2  18   6   12.18    2.68
  18  -2  -6   15.05    2.12
  18   2  -6   13.71    2.01
   2  18   6   12.14    2.96
  -2  18   6   12.04    2.13
   3  18  -1    7.89    1.86
   3  18   1    7.69    1.26
  -3  18  -1    7.78    1.78
  -3  18   1    8.43    2.28
  18  -3  -1    6.57    2.88
  18  -3   1    7.12    2.27
  18   3  -1    9.26    2.82
  18   3   1    8.22    2.04
   3  18  -1    9.61    1.81
  -3  18  -1    8.82    1.17
   3  18   1    8.73    1.47
  -3  18   1    8.60    1.32
   3  18  -3    8.09    0.76
  -3  18  -3    6.58    2.29
   3  18   3    9.02    1.95
  -3  18   3    8.77    1.47
  18  -3  -3    6.69    2.49
  18   3  -3    7.51    2.74
  18  -3   3    8.34    2.31
  18   3   3    8.03    2.57
   3  18  -3    8.42    1.56
  -3  18  -3    9.62    1.09
   3  18   3   11.12    1.50
  -3  18   3    9.79    0.50
  18  -3  -5   10.63    3.47
  18   3  -5    9.54    2.72
   3  18  -5   11.35    2.68
  -3  18  -5   10.87    2.61
   3  18   5   11.62    2.79
  -3  18   5   12.44    3.17
  18  -3  -5   12.08    1.74
  18   3  -5   16.26    2.36
  18   3   5   11.78    1.99
   3  18   5   13.76    2.57
  -3  18   5   11.42    2.60
   4  18   0    0.73    0.33
  -4  18   0    0.08    0.36
  18  -4   0    0.15    0.30
  18   4   0    0.23    0.27
   4  18   0    0.05    0.28
  -4  18   0    0.06    0.19
   4  18  -2   25.67    0.89
   4  18   2   23.80    0.87
  -4  18  -2   27.04    1.05
  -4  18   2   25.03    0.88
  18  -4  -2   24.98    1.18
  18  -4   2   24.65    1.49
  18   4  -2   26.68    1.14
  18   4   2   24.84    0.93
   4  18  -2   24.28    0.54
  -4  18  -2   25.30    0.58
   4  18   2   23.57    0.80
  -4  18   2   28.69    0.75
  18   4  -4    2.11    1.07
   4  18  -4    2.22    1.07
  -4  18  -4    1.11    0.64
   4  18   4    1.57    0.78
  -4  18   4    1.24    0.79
  18  -4  -4    1.44    0.74
  18   4  -4    0.97    0.61
  18   4   4    0.96    0.58
   4  18  -4    1.26    0.62
  -4  18  -4    1.43    0.67
   4  18   4    1.95    0.92
  -4  18   4    1.23    0.72
  18  -4  -6   21.24   11.92
  18   4  -6   15.32    9.05
   4  18  -6   18.28   10.48
  -4  18  -6   18.86   10.54
   4  18   6   17.38   10.05
  -4  18   6   22.16   12.40
  18  -4  -6   18.18   10.19
  18   4  -6   16.91   10.47
  18   4   6   18.28   10.23
   4  18   6   18.94   10.80
  -4  18   6   16.08    9.47
   5  18  -1   11.58    2.48
   5  18   1   13.63    0.63
  -5  18  -1   10.51    2.28
  -5  18   1   12.47    2.04
  18  -5  -1   12.95    0.86
  18  -5   1   12.65    2.88
  18   5  -1   11.66    3.12
  18   5   1   10.26    0.73
   5  18  -1   13.06    1.63
  -5  18  -1   13.64    0.51
   5  18   1   13.66    1.26
  -5  18   1   12.95    0.52
   5  18  -3    8.14    4.29
   5  18   3    8.77    4.13
  -5  18  -3    8.17    4.24
  -5  18   3    8.32    4.22
  18  -5  -3    8.39    4.23
  18   5  -3   10.55    5.11
  18   5   3    9.08    4.68
   5  18  -3    8.74    3.92
  -5  18  -3    8.11    3.68
   5  18   3   10.23    4.58
  -5  18   3    8.89    4.42
  18  -5  -5    3.09    1.09
  18   5  -5    5.08    1.33
   5  18  -5    4.47    1.02
  -5  18  -5    2.83    0.97
   5  18   5    4.43    1.57
  -5  18   5    4.31    1.24
  18  -5  -5    4.39    1.35
  18   5  -5    3.66    1.04
  18   5   5    4.07    1.21
  -5  18  -5    3.27    1.73
   5  18   5    4.65    0.90
  -5  18   5    6.62    1.00
   6  18   0    4.70    2.27
  -6  18   0    3.46    2.02
  18  -6   0    4.29    2.31
  18   6   0    4.33    2.37
   6  18   0    4.77    2.21
  -6  18   0    4.95    2.25
   6  18  -2    8.93    3.96
   6  18   2    8.81    4.11
  -6  18  -2    7.45    4.25
  -6  18   2    7.64    3.96
  18  -6  -2    8.63    3.89
  18   6  -2    9.97    5.25
  18   6   2    7.15    3.86
   6  18  -2    8.85    3.93
  -6  18  -2   11.42    5.12
   6  18   2    9.95    4.52
  -6  18   2   11.58    5.20
  18   6  -4    6.47    2.80
   6  18  -4    9.42    2.44
   6  18   4    8.69    1.74
  -6  18  -4    4.99    1.91
  -6  18   4    8.29    2.84
  18  -6  -4    6.53    2.20
  18   6  -4    7.12    2.47
  18   6   4    7.28    2.46
   6  18  -4    8.69    1.65
  -6  18  -4    9.54    1.29
   6  18   4    7.88    1.58
  -6  18   4    9.75    1.77
   7  18  -1    6.96    1.70
   7  18   1    5.63    2.39
  -7  18  -1    4.72    2.06
  -7  18   1    4.83    1.41
   7 -18  -1    6.30    2.54
  18  -7  -1    4.95    1.74
  18  -7   1    6.12    2.24
  18   7  -1    6.98    2.04
  18   7   1    7.69    2.26
   7  18  -1    6.76    1.34
  -7  18  -1    6.72    1.82
   7  18   1    6.66    1.24
  -7  18   1    6.66    1.32
   7  18  -3    7.55    1.89
   7  18   3    8.47    2.55
  -7  18  -3    5.64    2.18
  -7  18   3    5.22    1.71
   7 -18  -3    5.79    2.54
  18  -7  -3    6.25    2.59
  18   7  -3    7.11    2.26
  18   7   3    8.25    2.71
   7  18  -3    7.17    1.24
  -7  18  -3    8.10    1.60
   7  18   3    9.02    1.46
  -7  18   3    7.64    1.95
   8  18   0   14.41    3.04
  -8  18   0   13.43    2.56
  18  -8   0   10.89    3.95
  18   8   0   13.29    4.29
   8  18   0   18.10    2.51
  -8  18   0   20.63    2.73
   8  18  -2    0.89    0.67
   8  18   2    0.54    0.39
  -8  18  -2    0.74    0.74
  -8  18   2    0.67    0.60
   8 -18  -2    1.16    0.70
  18  -8  -2    0.61    0.48
  18   8  -2    1.66    1.00
   8  18  -2    0.31    0.30
  -8  18  -2    0.41    0.27
   8  18   2    0.68    0.51
  -8  18   2    0.71    0.49
   0  19  -1   17.32    7.88
   0  19   1   16.87    7.33
  19   0  -1   15.47    6.92
  19   0   1   13.56    6.05
   0  19  -1   18.88    8.18
   0  19   1   18.10    7.85
   0  19  -3   17.95    3.78
   0  19   3   15.00    3.53
  19   0  -3   17.49    3.46
  19   0   3   18.33    2.51
   0  19  -3   20.22    3.40
   0  19   3   22.06    3.96
  19   0  -5   21.16   12.67
   0  19  -5   15.46    8.95
   0  19   5   21.44   12.00
  19   0  -5   23.86   13.36
   0  19  -5   58.68   32.77
   0  19   5   20.81   11.63
   1  19   0    5.48    2.70
  -1  19   0    6.45    3.24
  19  -1   0    7.87    3.67
  19   1   0    6.36    3.31
   1  19   0    7.55    3.61
  -1  19   0    6.94    3.23
   1  19  -2    4.74    2.66
  -1  19  -2    4.64    2.49
   1  19   2    5.70    2.78
  -1  19   2    5.28    2.52
  19  -1  -2    5.48    3.14
  19   1  -2    5.42    2.59
  19  -1   2    3.86    2.01
  19   1   2    3.76    2.21
  -1  19  -2    5.29    2.42
   1  19  -2    4.38    2.27
  -1  19   2    5.67    2.62
   1  19   2    6.38    2.90
   1  19  -4    5.15    1.55
  -1  19  -4    4.27    1.49
   1  19   4    3.82    1.12
  -1  19   4    4.03    1.69
  19  -1  -4    3.42    1.47
  19   1  -4    5.65    1.54
  19   1   4    2.50    0.89
  -1  19  -4    5.56    1.08
   1  19  -4    5.02    0.95
  -1  19   4    4.99    1.41
   1  19   4    7.78    1.65
   2  19  -1    7.50    3.71
   2  19   1    8.11    3.76
  -2  19  -1    6.19    3.01
  -2  19   1    6.98    3.27
  19  -2  -1    4.56    2.66
  19  -2   1    6.04    3.31
  19   2  -1    6.73    3.48
  19   2   1    6.85    3.59
   2  19  -1    7.86    3.51
  -2  19  -1    6.12    2.84
   2  19   1    7.93    3.56
  -2  19   1    6.76    3.19
   2  19  -3    8.14    1.28
  -2  19  -3    9.15    1.77
   2  19   3    7.39    1.08
  -2  19   3    8.07    1.19
  19  -2  -3    8.66    3.41
  19   2  -3    7.57    1.58
  19  -2   3    7.52    1.86
  19   2   3    7.53    2.26
   2  19  -3    9.81    1.69
  -2  19  -3    9.35    1.55
   2  19   3    9.32    2.32
  -2  19   3    9.14    2.05
  19   2  -5    6.44    3.90
  19  -2  -5    7.91    4.86
  19   2  -5  592.04  372.11
  19   2   5    9.03    5.09
   2  19  -5   26.23   14.69
  -2  19  -5   12.37    6.92
   2  19   5   11.23    6.73
  -2  19   5    9.14    5.30
   3  19   0    1.52    0.81
  -3  19   0    1.69    0.91
  19  -3   0    0.74    0.57
  19   3   0    1.76    0.82
   3  19   0    1.52    0.82
  -3  19   0    1.31    0.76
   3  19  -2   26.98    3.58
   3  19   2   27.60    3.68
  -3  19  -2   24.89    3.88
  -3  19   2   29.32    3.90
  19  -3  -2   28.14    3.83
  19  -3   2   25.46    3.80
  19   3  -2   25.69    3.57
  19   3   2   25.30    4.79
   3  19  -2   27.50    3.82
  -3  19  -2   27.84    3.65
   3  19   2   28.66    3.77
  -3  19   2   33.73    4.42
   3  19  -4    0.20    0.30
  -3  19  -4   -0.10    0.46
   3  19   4   -0.18    0.57
  -3  19   4   -0.61    0.56
  19  -3  -4    0.43    0.48
  19   3  -4    0.45    0.67
  19   3   4    0.38    0.34
   3  19  -4    0.23    0.24
  -3  19  -4    0.48    0.34
   3  19   4    0.51    0.45
  -3  19   4   -0.69    0.50
   4  19  -1    3.02    0.74
   4  19   1    3.14    1.26
  -4  19  -1    2.68    1.00
  -4  19   1    1.44    0.62
  19  -4  -1    1.95    0.70
  19  -4   1    1.92    0.59
  19   4  -1    1.64    0.54
  19   4   1    2.56    0.75
   4  19  -1    2.67    0.48
  -4  19  -1    3.06    0.78
   4  19   1    3.10    0.63
  -4  19   1    1.82    0.78
   4  19  -3    2.66    1.62
  -4  19  -3    1.73    1.13
   4  19   3    2.08    1.26
  -4  19   3    1.15    1.08
  19  -4  -3    2.11    1.52
  19   4  -3    2.34    1.43
  19   4   3    2.37    1.40
   4  19  -3    1.51    0.88
  -4  19  -3    1.69    1.00
   4  19   3    1.40    0.86
  -4  19   3    2.47    1.44
   5  19   0    0.50    0.26
  -5  19   0    0.16    0.23
  19  -5   0    0.58    0.31
  19   5   0    0.82    0.38
   5  19   0    0.59    0.28
  -5  19   0    0.58    0.19
   5  19  -2   23.85   13.32
   5  19   2   23.73   13.66
  -5  19  -2   25.34   14.16
  -5  19   2   26.06   14.57
  19  -5  -2   26.77   14.98
  19   5  -2   28.39   15.88
  19   5   2   29.51   16.50
   5  19  -2   27.15   15.16
  -5  19  -2   29.40   16.41
   5  19   2   25.12   14.26
  -5  19   2   27.40   15.30
   6  19  -1    5.95    3.52
   6  19   1    6.82    4.03
  -6  19  -1    4.83    3.24
  -6  19   1    5.51    3.73
  19  -6  -1    6.06    3.96
  19  -6   1    4.38    2.86
  19   6  -1    6.47    4.04
  19   6   1    7.07    4.34
   6  19  -1    7.61    4.39
  -6  19  -1    6.00    3.50
   6  19   1    6.82    3.91
  -6  19   1    6.51    3.86
   0  20   0    0.10    0.37
  20   0   0    0.84    0.60
   0  20   0    0.46    0.34
   1  20  -1   12.39    7.40
  -1  20  -1   12.31    7.27
   1  20   1   12.48    7.20
  -1  20   1   13.67    7.66
  20  -1  -1   14.20    7.99
  20   1  -1   11.86    7.04
  20  -1   1   13.83    7.76
  20   1   1   11.76    7.03
  -1  20  -1   17.34    9.69
   1  20  -1   14.66    8.38
   1  20   1   12.29    7.14
  -1  20   1   11.98    6.93
   2  20   0    0.38    0.27
  -2  20   0    0.35    0.28
  20  -2   0    1.08    0.84
  20   2   0    0.67    0.63
   2  20   0    0.24    0.26
  -2  20   0    0.41    0.31
   0   0   0    0.00    0.00
;
_shelx_hkl_checksum               49589
_olex2_exptl_crystal_mounting_method
'Supergued to a MiTeGen micro-gripper, inserted into a quartz capilliary connected to gas handling equipment.'
_olex2_submission_original_sample_id INMSMN
_olex2_submission_special_instructions 'No special instructions were received'
