@<TRIPOS>MOLECULE
LIG
   30    31     1     0     0
SMALL
No Charge or Current Charge


@<TRIPOS>ATOM
      1 C1           7.4150     7.4150     6.6550 cp         1 LIG       0.000000
      2 C1           7.4150     7.4150     5.1180 cp         1 LIG       0.000000
      3 C2           6.3560     8.0190     7.3330 ca         1 LIG       0.000000
      4 C2           6.8110     8.4730     4.4400 ca         1 LIG       0.000000
      5 C2           8.4730     6.8110     7.3330 ca         1 LIG       0.000000
      6 C2           8.0190     6.3560     4.4400 ca         1 LIG       0.000000
      7 C3           6.4040     8.0820     8.7450 ca         1 LIG       0.000000
      8 C3           6.7480     8.4260     3.0280 ca         1 LIG       0.000000
      9 C3           8.4260     6.7480     8.7450 ca         1 LIG       0.000000
     10 C3           8.0820     6.4040     3.0280 ca         1 LIG       0.000000
     11 C4           7.4150     7.4150     9.4600 ca         1 LIG       0.000000
     12 C4           7.4150     7.4150     2.3130 ca         1 LIG       0.000000
     13 C5           5.3440     8.7910     9.4830 c          1 LIG       0.000000
     14 C5           6.0390     9.4850     2.2900 c          1 LIG       0.000000
     15 C5           9.4850     6.0390     9.4830 c          1 LIG       0.000000
     16 C5           8.7910     5.3440     2.2900 c          1 LIG       0.000000
     17 H2           5.6700     8.4420     6.8650 ha         1 LIG       0.000000
     18 H2           6.3870     9.1600     4.9090 ha         1 LIG       0.000000
     19 H2           9.1600     6.3870     6.8650 ha         1 LIG       0.000000
     20 H2           8.4420     5.6700     4.9090 ha         1 LIG       0.000000
     21 H4           7.4150     7.4150    10.3890 ha         1 LIG       0.000000
     22 H4           7.4150     7.4150     1.3840 ha         1 LIG       0.000000
     23 O1           4.2520     8.9300     8.8140 o          1 LIG       0.000000
     24 O1           5.8990    10.5770     2.9590 o          1 LIG       0.000000
     25 O1          10.5770     5.8990     8.8140 o          1 LIG       0.000000
     26 O1           8.9300     4.2520     2.9590 o          1 LIG       0.000000
     27 O2           9.2880     5.6110     1.2440 o          1 LIG       0.000000
     28 O2           9.2190     5.5420    10.5290 o          1 LIG       0.000000
     29 O2           5.5420     9.2190     1.2440 o          1 LIG       0.000000
     30 O2           5.6110     9.2880    10.5290 o          1 LIG       0.000000
@<TRIPOS>BOND
     1     1     2 1   
     2     1     3 ar  
     3     1     5 ar  
     4     2     4 ar  
     5     2     6 ar  
     6     3     7 ar  
     7     3    17 1   
     8     4     8 ar  
     9     4    18 1   
    10     5     9 ar  
    11     5    19 1   
    12     6    10 ar  
    13     6    20 1   
    14     7    11 ar  
    15     7    13 1   
    16     8    12 ar  
    17     8    14 1   
    18     9    11 ar  
    19     9    15 1   
    20    10    12 ar  
    21    10    16 1   
    22    11    21 1   
    23    12    22 1   
    24    13    23 1   
    25    13    30 1   
    26    14    24 1   
    27    14    29 1   
    28    15    25 1   
    29    15    28 1   
    30    16    26 1   
    31    16    27 1   
@<TRIPOS>SUBSTRUCTURE
     1 LIG         1 TEMP              0 ****  ****    0 ROOT
