@<TRIPOS>MOLECULE
OH
    6     5     1     0     0
SMALL
No Charge or Current Charge


@<TRIPOS>ATOM
      1 O            3.5110    11.0440     1.4770 oh         1 OH        0.000000
      2 C            4.5740    11.9520     1.4690 c3         2 LIG       0.000000
      3 H            2.8670    11.3710     0.7960 ho         2 LIG       0.000000
      4 H            5.3270    11.6310     2.2170 h1         2 LIG       0.000000
      5 H            4.2170    12.9670     1.7500 h1         2 LIG       0.000000
      6 H            5.0620    11.9670     0.4700 h1         2 LIG       0.000000
@<TRIPOS>BOND
     1     1     2 1   
     2     1     3 1   
     3     2     4 1   
     4     2     5 1   
     5     2     6 1   
@<TRIPOS>SUBSTRUCTURE
     1 OH          1 TEMP              0 ****  ****    0 ROOT
